
---------- Begin Simulation Statistics ----------
final_tick                               635753441500                       # Number of ticks from beginning of simulation (restored from checkpoints and never reset)
host_inst_rate                             2480680411                       # Simulator instruction rate (inst/s)
host_mem_usage                                 877360                       # Number of bytes of host memory used
host_op_rate                               4471327755                       # Simulator op (including micro ops) rate (op/s)
host_seconds                                     0.24                       # Real time elapsed on the host
host_tick_rate                                9172154                       # Simulator tick rate (ticks/s)
sim_freq                                 1000000000000                       # Frequency of simulated ticks
sim_insts                                   603765202                       # Number of instructions simulated
sim_ops                                    1089466998                       # Number of ops (including micro ops) simulated
sim_seconds                                  0.000002                       # Number of seconds simulated
sim_ticks                                     2235250                       # Number of ticks simulated
system.cpu.committedInsts                           0                       # Number of instructions committed
system.cpu.committedOps                             0                       # Number of ops (including micro ops) committed
system.cpu.dtb.rdAccesses                           0                       # TLB accesses on read requests
system.cpu.dtb.rdMisses                             0                       # TLB misses on read requests
system.cpu.dtb.wrAccesses                           0                       # TLB accesses on write requests
system.cpu.dtb.wrMisses                             0                       # TLB misses on write requests
system.cpu.idle_fraction                            0                       # Percentage of idle cycles
system.cpu.itb.rdAccesses                           0                       # TLB accesses on read requests
system.cpu.itb.rdMisses                             0                       # TLB misses on read requests
system.cpu.itb.wrAccesses                           0                       # TLB accesses on write requests
system.cpu.itb.wrMisses                             0                       # TLB misses on write requests
system.cpu.not_idle_fraction                        1                       # Percentage of non-idle cycles
system.cpu.numCycles                                0                       # number of cpu cycles simulated
system.cpu.numWorkItemsCompleted                    0                       # number of work items this cpu completed
system.cpu.numWorkItemsStarted                      0                       # number of work items this cpu started
system.cpu.num_busy_cycles                          0                       # Number of busy cycles
system.cpu.num_conditional_control_insts            0                       # number of instructions that are conditional controls
system.cpu.num_fp_alu_accesses                      0                       # Number of float alu accesses
system.cpu.num_fp_insts                             0                       # number of float instructions
system.cpu.num_fp_register_reads                    0                       # number of times the floating registers were read
system.cpu.num_fp_register_writes                   0                       # number of times the floating registers were written
system.cpu.num_func_calls                           0                       # number of times a function call or return occured
system.cpu.num_idle_cycles                          0                       # Number of idle cycles
system.cpu.num_int_alu_accesses                     0                       # Number of integer alu accesses
system.cpu.num_int_insts                            0                       # number of integer instructions
system.cpu.num_int_register_reads                   0                       # number of times the integer registers were read
system.cpu.num_int_register_writes                  0                       # number of times the integer registers were written
system.cpu.num_load_insts                           0                       # Number of load instructions
system.cpu.num_mem_refs                             0                       # number of memory refs
system.cpu.num_store_insts                          0                       # Number of store instructions
system.cpu.num_vec_alu_accesses                     0                       # Number of vector alu accesses
system.cpu.num_vec_insts                            0                       # number of vector instructions
system.cpu.num_vec_register_reads                   0                       # number of times the vector registers were read
system.cpu.num_vec_register_writes                  0                       # number of times the vector registers were written
system.cpu.op_class::No_OpClass                     0                       # Class of executed instruction
system.cpu.op_class::IntAlu                         0                       # Class of executed instruction
system.cpu.op_class::IntMult                        0                       # Class of executed instruction
system.cpu.op_class::IntDiv                         0                       # Class of executed instruction
system.cpu.op_class::FloatAdd                       0                       # Class of executed instruction
system.cpu.op_class::FloatCmp                       0                       # Class of executed instruction
system.cpu.op_class::FloatCvt                       0                       # Class of executed instruction
system.cpu.op_class::FloatMult                      0                       # Class of executed instruction
system.cpu.op_class::FloatMultAcc                   0                       # Class of executed instruction
system.cpu.op_class::FloatDiv                       0                       # Class of executed instruction
system.cpu.op_class::FloatMisc                      0                       # Class of executed instruction
system.cpu.op_class::FloatSqrt                      0                       # Class of executed instruction
system.cpu.op_class::SimdAdd                        0                       # Class of executed instruction
system.cpu.op_class::SimdAddAcc                     0                       # Class of executed instruction
system.cpu.op_class::SimdAlu                        0                       # Class of executed instruction
system.cpu.op_class::SimdCmp                        0                       # Class of executed instruction
system.cpu.op_class::SimdCvt                        0                       # Class of executed instruction
system.cpu.op_class::SimdMisc                       0                       # Class of executed instruction
system.cpu.op_class::SimdMult                       0                       # Class of executed instruction
system.cpu.op_class::SimdMultAcc                    0                       # Class of executed instruction
system.cpu.op_class::SimdShift                      0                       # Class of executed instruction
system.cpu.op_class::SimdShiftAcc                   0                       # Class of executed instruction
system.cpu.op_class::SimdDiv                        0                       # Class of executed instruction
system.cpu.op_class::SimdSqrt                       0                       # Class of executed instruction
system.cpu.op_class::SimdFloatAdd                   0                       # Class of executed instruction
system.cpu.op_class::SimdFloatAlu                   0                       # Class of executed instruction
system.cpu.op_class::SimdFloatCmp                   0                       # Class of executed instruction
system.cpu.op_class::SimdFloatCvt                   0                       # Class of executed instruction
system.cpu.op_class::SimdFloatDiv                   0                       # Class of executed instruction
system.cpu.op_class::SimdFloatMisc                  0                       # Class of executed instruction
system.cpu.op_class::SimdFloatMult                  0                       # Class of executed instruction
system.cpu.op_class::SimdFloatMultAcc               0                       # Class of executed instruction
system.cpu.op_class::SimdFloatSqrt                  0                       # Class of executed instruction
system.cpu.op_class::SimdReduceAdd                  0                       # Class of executed instruction
system.cpu.op_class::SimdReduceAlu                  0                       # Class of executed instruction
system.cpu.op_class::SimdReduceCmp                  0                       # Class of executed instruction
system.cpu.op_class::SimdFloatReduceAdd             0                       # Class of executed instruction
system.cpu.op_class::SimdFloatReduceCmp             0                       # Class of executed instruction
system.cpu.op_class::SimdAes                        0                       # Class of executed instruction
system.cpu.op_class::SimdAesMix                     0                       # Class of executed instruction
system.cpu.op_class::SimdSha1Hash                   0                       # Class of executed instruction
system.cpu.op_class::SimdSha1Hash2                  0                       # Class of executed instruction
system.cpu.op_class::SimdSha256Hash                 0                       # Class of executed instruction
system.cpu.op_class::SimdSha256Hash2                0                       # Class of executed instruction
system.cpu.op_class::SimdShaSigma2                  0                       # Class of executed instruction
system.cpu.op_class::SimdShaSigma3                  0                       # Class of executed instruction
system.cpu.op_class::SimdPredAlu                    0                       # Class of executed instruction
system.cpu.op_class::MemRead                        0                       # Class of executed instruction
system.cpu.op_class::MemWrite                       0                       # Class of executed instruction
system.cpu.op_class::FloatMemRead                   0                       # Class of executed instruction
system.cpu.op_class::FloatMemWrite                  0                       # Class of executed instruction
system.cpu.op_class::IprAccess                      0                       # Class of executed instruction
system.cpu.op_class::InstPrefetch                   0                       # Class of executed instruction
system.cpu.op_class::total                          0                       # Class of executed instruction
system.cpu.workload.numSyscalls                     0                       # Number of system calls
system.membus.snoop_filter.hit_multi_requests            0                       # Number of requests hitting in the snoop filter with multiple (>1) holders of the requested data.
system.membus.snoop_filter.hit_multi_snoops            0                       # Number of snoops hitting in the snoop filter with multiple (>1) holders of the requested data.
system.membus.snoop_filter.hit_single_requests            0                       # Number of requests hitting in the snoop filter with a single holder of the requested data.
system.membus.snoop_filter.hit_single_snoops            0                       # Number of snoops hitting in the snoop filter with a single holder of the requested data.
system.membus.snoop_filter.tot_requests             0                       # Total number of requests made to the snoop filter.
system.membus.snoop_filter.tot_snoops               0                       # Total number of snoops made to the snoop filter.
system.switch_cpus.committedInsts                   0                       # Number of instructions committed
system.switch_cpus.committedOps                     0                       # Number of ops (including micro ops) committed
system.switch_cpus.dtb.rdAccesses                   0                       # TLB accesses on read requests
system.switch_cpus.dtb.rdMisses                     0                       # TLB misses on read requests
system.switch_cpus.dtb.wrAccesses                   0                       # TLB accesses on write requests
system.switch_cpus.dtb.wrMisses                     0                       # TLB misses on write requests
system.switch_cpus.idle_fraction                    0                       # Percentage of idle cycles
system.switch_cpus.itb.rdAccesses                   0                       # TLB accesses on read requests
system.switch_cpus.itb.rdMisses                     0                       # TLB misses on read requests
system.switch_cpus.itb.wrAccesses                   0                       # TLB accesses on write requests
system.switch_cpus.itb.wrMisses                     0                       # TLB misses on write requests
system.switch_cpus.not_idle_fraction                1                       # Percentage of non-idle cycles
system.switch_cpus.numCycles                        0                       # number of cpu cycles simulated
system.switch_cpus.numWorkItemsCompleted            0                       # number of work items this cpu completed
system.switch_cpus.numWorkItemsStarted              0                       # number of work items this cpu started
system.switch_cpus.num_busy_cycles                  0                       # Number of busy cycles
system.switch_cpus.num_conditional_control_insts            0                       # number of instructions that are conditional controls
system.switch_cpus.num_fp_alu_accesses              0                       # Number of float alu accesses
system.switch_cpus.num_fp_insts                     0                       # number of float instructions
system.switch_cpus.num_fp_register_reads            0                       # number of times the floating registers were read
system.switch_cpus.num_fp_register_writes            0                       # number of times the floating registers were written
system.switch_cpus.num_func_calls                   0                       # number of times a function call or return occured
system.switch_cpus.num_idle_cycles                  0                       # Number of idle cycles
system.switch_cpus.num_int_alu_accesses             0                       # Number of integer alu accesses
system.switch_cpus.num_int_insts                    0                       # number of integer instructions
system.switch_cpus.num_int_register_reads            0                       # number of times the integer registers were read
system.switch_cpus.num_int_register_writes            0                       # number of times the integer registers were written
system.switch_cpus.num_load_insts                   0                       # Number of load instructions
system.switch_cpus.num_mem_refs                     0                       # number of memory refs
system.switch_cpus.num_store_insts                  0                       # Number of store instructions
system.switch_cpus.num_vec_alu_accesses             0                       # Number of vector alu accesses
system.switch_cpus.num_vec_insts                    0                       # number of vector instructions
system.switch_cpus.num_vec_register_reads            0                       # number of times the vector registers were read
system.switch_cpus.num_vec_register_writes            0                       # number of times the vector registers were written
system.switch_cpus.op_class::No_OpClass             0                       # Class of executed instruction
system.switch_cpus.op_class::IntAlu                 0                       # Class of executed instruction
system.switch_cpus.op_class::IntMult                0                       # Class of executed instruction
system.switch_cpus.op_class::IntDiv                 0                       # Class of executed instruction
system.switch_cpus.op_class::FloatAdd               0                       # Class of executed instruction
system.switch_cpus.op_class::FloatCmp               0                       # Class of executed instruction
system.switch_cpus.op_class::FloatCvt               0                       # Class of executed instruction
system.switch_cpus.op_class::FloatMult              0                       # Class of executed instruction
system.switch_cpus.op_class::FloatMultAcc            0                       # Class of executed instruction
system.switch_cpus.op_class::FloatDiv               0                       # Class of executed instruction
system.switch_cpus.op_class::FloatMisc              0                       # Class of executed instruction
system.switch_cpus.op_class::FloatSqrt              0                       # Class of executed instruction
system.switch_cpus.op_class::SimdAdd                0                       # Class of executed instruction
system.switch_cpus.op_class::SimdAddAcc             0                       # Class of executed instruction
system.switch_cpus.op_class::SimdAlu                0                       # Class of executed instruction
system.switch_cpus.op_class::SimdCmp                0                       # Class of executed instruction
system.switch_cpus.op_class::SimdCvt                0                       # Class of executed instruction
system.switch_cpus.op_class::SimdMisc               0                       # Class of executed instruction
system.switch_cpus.op_class::SimdMult               0                       # Class of executed instruction
system.switch_cpus.op_class::SimdMultAcc            0                       # Class of executed instruction
system.switch_cpus.op_class::SimdShift              0                       # Class of executed instruction
system.switch_cpus.op_class::SimdShiftAcc            0                       # Class of executed instruction
system.switch_cpus.op_class::SimdDiv                0                       # Class of executed instruction
system.switch_cpus.op_class::SimdSqrt               0                       # Class of executed instruction
system.switch_cpus.op_class::SimdFloatAdd            0                       # Class of executed instruction
system.switch_cpus.op_class::SimdFloatAlu            0                       # Class of executed instruction
system.switch_cpus.op_class::SimdFloatCmp            0                       # Class of executed instruction
system.switch_cpus.op_class::SimdFloatCvt            0                       # Class of executed instruction
system.switch_cpus.op_class::SimdFloatDiv            0                       # Class of executed instruction
system.switch_cpus.op_class::SimdFloatMisc            0                       # Class of executed instruction
system.switch_cpus.op_class::SimdFloatMult            0                       # Class of executed instruction
system.switch_cpus.op_class::SimdFloatMultAcc            0                       # Class of executed instruction
system.switch_cpus.op_class::SimdFloatSqrt            0                       # Class of executed instruction
system.switch_cpus.op_class::SimdReduceAdd            0                       # Class of executed instruction
system.switch_cpus.op_class::SimdReduceAlu            0                       # Class of executed instruction
system.switch_cpus.op_class::SimdReduceCmp            0                       # Class of executed instruction
system.switch_cpus.op_class::SimdFloatReduceAdd            0                       # Class of executed instruction
system.switch_cpus.op_class::SimdFloatReduceCmp            0                       # Class of executed instruction
system.switch_cpus.op_class::SimdAes                0                       # Class of executed instruction
system.switch_cpus.op_class::SimdAesMix             0                       # Class of executed instruction
system.switch_cpus.op_class::SimdSha1Hash            0                       # Class of executed instruction
system.switch_cpus.op_class::SimdSha1Hash2            0                       # Class of executed instruction
system.switch_cpus.op_class::SimdSha256Hash            0                       # Class of executed instruction
system.switch_cpus.op_class::SimdSha256Hash2            0                       # Class of executed instruction
system.switch_cpus.op_class::SimdShaSigma2            0                       # Class of executed instruction
system.switch_cpus.op_class::SimdShaSigma3            0                       # Class of executed instruction
system.switch_cpus.op_class::SimdPredAlu            0                       # Class of executed instruction
system.switch_cpus.op_class::MemRead                0                       # Class of executed instruction
system.switch_cpus.op_class::MemWrite               0                       # Class of executed instruction
system.switch_cpus.op_class::FloatMemRead            0                       # Class of executed instruction
system.switch_cpus.op_class::FloatMemWrite            0                       # Class of executed instruction
system.switch_cpus.op_class::IprAccess              0                       # Class of executed instruction
system.switch_cpus.op_class::InstPrefetch            0                       # Class of executed instruction
system.switch_cpus.op_class::total                  0                       # Class of executed instruction
system.switch_cpus_1.branchPred.BTBCorrect            0                       # Number of correct BTB predictions (this stat may not work properly.
system.switch_cpus_1.branchPred.BTBHitPct          nan                       # BTB Hit Percentage
system.switch_cpus_1.branchPred.BTBHits             0                       # Number of BTB hits
system.switch_cpus_1.branchPred.BTBLookups            0                       # Number of BTB lookups
system.switch_cpus_1.branchPred.RASInCorrect            0                       # Number of incorrect RAS predictions.
system.switch_cpus_1.branchPred.condIncorrect          208                       # Number of conditional branches incorrect
system.switch_cpus_1.branchPred.condPredicted         1633                       # Number of conditional branches predicted
system.switch_cpus_1.branchPred.indirectHits           45                       # Number of indirect target hits.
system.switch_cpus_1.branchPred.indirectLookups          823                       # Number of indirect predictor lookups.
system.switch_cpus_1.branchPred.indirectMisses          778                       # Number of indirect misses.
system.switch_cpus_1.branchPred.lookups          1708                       # Number of BP lookups
system.switch_cpus_1.branchPred.usedRAS            75                       # Number of times the RAS was used to get a target.
system.switch_cpus_1.branchPredindirectMispredicted           82                       # Number of mispredicted indirect branches.
system.switch_cpus_1.cc_regfile_reads            3420                       # number of cc regfile reads
system.switch_cpus_1.cc_regfile_writes           2520                       # number of cc regfile writes
system.switch_cpus_1.commit.amos                    0                       # Number of atomic instructions committed
system.switch_cpus_1.commit.branchMispredicts          210                       # The number of times a branch was mispredicted
system.switch_cpus_1.commit.branches              312                       # Number of branches committed
system.switch_cpus_1.commit.bw_lim_events          115                       # number cycles where commit BW limit reached
system.switch_cpus_1.commit.commitSquashedInsts        10419                       # The number of squashed insts skipped by commit
system.switch_cpus_1.commit.committedInsts         1680                       # Number of instructions committed
system.switch_cpus_1.commit.committedOps         2893                       # Number of ops (including micro ops) committed
system.switch_cpus_1.commit.committed_per_cycle::samples         3016                       # Number of insts commited each cycle
system.switch_cpus_1.commit.committed_per_cycle::mean     0.959218                       # Number of insts commited each cycle
system.switch_cpus_1.commit.committed_per_cycle::stdev     1.818094                       # Number of insts commited each cycle
system.switch_cpus_1.commit.committed_per_cycle::underflows            0      0.00%      0.00% # Number of insts commited each cycle
system.switch_cpus_1.commit.committed_per_cycle::0         1846     61.21%     61.21% # Number of insts commited each cycle
system.switch_cpus_1.commit.committed_per_cycle::1          628     20.82%     82.03% # Number of insts commited each cycle
system.switch_cpus_1.commit.committed_per_cycle::2          152      5.04%     87.07% # Number of insts commited each cycle
system.switch_cpus_1.commit.committed_per_cycle::3          111      3.68%     90.75% # Number of insts commited each cycle
system.switch_cpus_1.commit.committed_per_cycle::4          130      4.31%     95.06% # Number of insts commited each cycle
system.switch_cpus_1.commit.committed_per_cycle::5           25      0.83%     95.89% # Number of insts commited each cycle
system.switch_cpus_1.commit.committed_per_cycle::6            0      0.00%     95.89% # Number of insts commited each cycle
system.switch_cpus_1.commit.committed_per_cycle::7            9      0.30%     96.19% # Number of insts commited each cycle
system.switch_cpus_1.commit.committed_per_cycle::8          115      3.81%    100.00% # Number of insts commited each cycle
system.switch_cpus_1.commit.committed_per_cycle::overflows            0      0.00%    100.00% # Number of insts commited each cycle
system.switch_cpus_1.commit.committed_per_cycle::min_value            0                       # Number of insts commited each cycle
system.switch_cpus_1.commit.committed_per_cycle::max_value            8                       # Number of insts commited each cycle
system.switch_cpus_1.commit.committed_per_cycle::total         3016                       # Number of insts commited each cycle
system.switch_cpus_1.commit.fp_insts                0                       # Number of committed floating point instructions.
system.switch_cpus_1.commit.function_calls            0                       # Number of function calls committed.
system.switch_cpus_1.commit.int_insts            2893                       # Number of committed integer instructions.
system.switch_cpus_1.commit.loads                 522                       # Number of loads committed
system.switch_cpus_1.commit.membars                 0                       # Number of memory barriers committed
system.switch_cpus_1.commit.op_class_0::No_OpClass            0      0.00%      0.00% # Class of committed instruction
system.switch_cpus_1.commit.op_class_0::IntAlu         2308     79.78%     79.78% # Class of committed instruction
system.switch_cpus_1.commit.op_class_0::IntMult            0      0.00%     79.78% # Class of committed instruction
system.switch_cpus_1.commit.op_class_0::IntDiv            0      0.00%     79.78% # Class of committed instruction
system.switch_cpus_1.commit.op_class_0::FloatAdd            0      0.00%     79.78% # Class of committed instruction
system.switch_cpus_1.commit.op_class_0::FloatCmp            0      0.00%     79.78% # Class of committed instruction
system.switch_cpus_1.commit.op_class_0::FloatCvt            0      0.00%     79.78% # Class of committed instruction
system.switch_cpus_1.commit.op_class_0::FloatMult            0      0.00%     79.78% # Class of committed instruction
system.switch_cpus_1.commit.op_class_0::FloatMultAcc            0      0.00%     79.78% # Class of committed instruction
system.switch_cpus_1.commit.op_class_0::FloatDiv            0      0.00%     79.78% # Class of committed instruction
system.switch_cpus_1.commit.op_class_0::FloatMisc            0      0.00%     79.78% # Class of committed instruction
system.switch_cpus_1.commit.op_class_0::FloatSqrt            0      0.00%     79.78% # Class of committed instruction
system.switch_cpus_1.commit.op_class_0::SimdAdd            0      0.00%     79.78% # Class of committed instruction
system.switch_cpus_1.commit.op_class_0::SimdAddAcc            0      0.00%     79.78% # Class of committed instruction
system.switch_cpus_1.commit.op_class_0::SimdAlu            0      0.00%     79.78% # Class of committed instruction
system.switch_cpus_1.commit.op_class_0::SimdCmp            0      0.00%     79.78% # Class of committed instruction
system.switch_cpus_1.commit.op_class_0::SimdCvt            0      0.00%     79.78% # Class of committed instruction
system.switch_cpus_1.commit.op_class_0::SimdMisc            0      0.00%     79.78% # Class of committed instruction
system.switch_cpus_1.commit.op_class_0::SimdMult            0      0.00%     79.78% # Class of committed instruction
system.switch_cpus_1.commit.op_class_0::SimdMultAcc            0      0.00%     79.78% # Class of committed instruction
system.switch_cpus_1.commit.op_class_0::SimdShift            0      0.00%     79.78% # Class of committed instruction
system.switch_cpus_1.commit.op_class_0::SimdShiftAcc            0      0.00%     79.78% # Class of committed instruction
system.switch_cpus_1.commit.op_class_0::SimdDiv            0      0.00%     79.78% # Class of committed instruction
system.switch_cpus_1.commit.op_class_0::SimdSqrt            0      0.00%     79.78% # Class of committed instruction
system.switch_cpus_1.commit.op_class_0::SimdFloatAdd            0      0.00%     79.78% # Class of committed instruction
system.switch_cpus_1.commit.op_class_0::SimdFloatAlu            0      0.00%     79.78% # Class of committed instruction
system.switch_cpus_1.commit.op_class_0::SimdFloatCmp            0      0.00%     79.78% # Class of committed instruction
system.switch_cpus_1.commit.op_class_0::SimdFloatCvt            0      0.00%     79.78% # Class of committed instruction
system.switch_cpus_1.commit.op_class_0::SimdFloatDiv            0      0.00%     79.78% # Class of committed instruction
system.switch_cpus_1.commit.op_class_0::SimdFloatMisc            0      0.00%     79.78% # Class of committed instruction
system.switch_cpus_1.commit.op_class_0::SimdFloatMult            0      0.00%     79.78% # Class of committed instruction
system.switch_cpus_1.commit.op_class_0::SimdFloatMultAcc            0      0.00%     79.78% # Class of committed instruction
system.switch_cpus_1.commit.op_class_0::SimdFloatSqrt            0      0.00%     79.78% # Class of committed instruction
system.switch_cpus_1.commit.op_class_0::SimdReduceAdd            0      0.00%     79.78% # Class of committed instruction
system.switch_cpus_1.commit.op_class_0::SimdReduceAlu            0      0.00%     79.78% # Class of committed instruction
system.switch_cpus_1.commit.op_class_0::SimdReduceCmp            0      0.00%     79.78% # Class of committed instruction
system.switch_cpus_1.commit.op_class_0::SimdFloatReduceAdd            0      0.00%     79.78% # Class of committed instruction
system.switch_cpus_1.commit.op_class_0::SimdFloatReduceCmp            0      0.00%     79.78% # Class of committed instruction
system.switch_cpus_1.commit.op_class_0::SimdAes            0      0.00%     79.78% # Class of committed instruction
system.switch_cpus_1.commit.op_class_0::SimdAesMix            0      0.00%     79.78% # Class of committed instruction
system.switch_cpus_1.commit.op_class_0::SimdSha1Hash            0      0.00%     79.78% # Class of committed instruction
system.switch_cpus_1.commit.op_class_0::SimdSha1Hash2            0      0.00%     79.78% # Class of committed instruction
system.switch_cpus_1.commit.op_class_0::SimdSha256Hash            0      0.00%     79.78% # Class of committed instruction
system.switch_cpus_1.commit.op_class_0::SimdSha256Hash2            0      0.00%     79.78% # Class of committed instruction
system.switch_cpus_1.commit.op_class_0::SimdShaSigma2            0      0.00%     79.78% # Class of committed instruction
system.switch_cpus_1.commit.op_class_0::SimdShaSigma3            0      0.00%     79.78% # Class of committed instruction
system.switch_cpus_1.commit.op_class_0::SimdPredAlu            0      0.00%     79.78% # Class of committed instruction
system.switch_cpus_1.commit.op_class_0::MemRead          522     18.04%     97.82% # Class of committed instruction
system.switch_cpus_1.commit.op_class_0::MemWrite           63      2.18%    100.00% # Class of committed instruction
system.switch_cpus_1.commit.op_class_0::FloatMemRead            0      0.00%    100.00% # Class of committed instruction
system.switch_cpus_1.commit.op_class_0::FloatMemWrite            0      0.00%    100.00% # Class of committed instruction
system.switch_cpus_1.commit.op_class_0::IprAccess            0      0.00%    100.00% # Class of committed instruction
system.switch_cpus_1.commit.op_class_0::InstPrefetch            0      0.00%    100.00% # Class of committed instruction
system.switch_cpus_1.commit.op_class_0::total         2893                       # Class of committed instruction
system.switch_cpus_1.commit.refs                  585                       # Number of memory references committed
system.switch_cpus_1.commit.swp_count               0                       # Number of s/w prefetches committed
system.switch_cpus_1.commit.vec_insts               0                       # Number of committed Vector instructions.
system.switch_cpus_1.committedInsts              1680                       # Number of Instructions Simulated
system.switch_cpus_1.committedOps                2893                       # Number of Ops (including micro ops) Simulated
system.switch_cpus_1.cpi                     2.660714                       # CPI: Cycles Per Instruction
system.switch_cpus_1.cpi_total               2.660714                       # CPI: Total CPI of All Threads
system.switch_cpus_1.decode.BlockedCycles         1253                       # Number of cycles decode is blocked
system.switch_cpus_1.decode.DecodedInsts        17026                       # Number of instructions handled by decode
system.switch_cpus_1.decode.IdleCycles            759                       # Number of cycles decode is idle
system.switch_cpus_1.decode.RunCycles            1830                       # Number of cycles decode is running
system.switch_cpus_1.decode.SquashCycles          214                       # Number of cycles decode is squashing
system.switch_cpus_1.decode.UnblockCycles          385                       # Number of cycles decode is unblocking
system.switch_cpus_1.dtb.rdAccesses              2037                       # TLB accesses on read requests
system.switch_cpus_1.dtb.rdMisses                  21                       # TLB misses on read requests
system.switch_cpus_1.dtb.wrAccesses               530                       # TLB accesses on write requests
system.switch_cpus_1.dtb.wrMisses                   2                       # TLB misses on write requests
system.switch_cpus_1.fetch.Branches              1708                       # Number of branches that fetch encountered
system.switch_cpus_1.fetch.CacheLines            1045                       # Number of cache lines fetched
system.switch_cpus_1.fetch.Cycles                3579                       # Number of cycles fetch has run and was not squashing or blocked
system.switch_cpus_1.fetch.Insts                10598                       # Number of instructions fetch has processed
system.switch_cpus_1.fetch.PendingTrapStallCycles          466                       # Number of stall cycles due to pending traps
system.switch_cpus_1.fetch.SquashCycles           428                       # Number of cycles fetch has spent squashing
system.switch_cpus_1.fetch.branchRate        0.382103                       # Number of branch fetches per cycle
system.switch_cpus_1.fetch.icacheStallCycles          211                       # Number of cycles fetch is stalled on an Icache miss
system.switch_cpus_1.fetch.predictedBranches          120                       # Number of branches that fetch has predicted taken
system.switch_cpus_1.fetch.rate              2.370917                       # Number of inst fetches per cycle
system.switch_cpus_1.fetch.rateDist::samples         4470                       # Number of instructions fetched each cycle (Total)
system.switch_cpus_1.fetch.rateDist::mean     4.326846                       # Number of instructions fetched each cycle (Total)
system.switch_cpus_1.fetch.rateDist::stdev     3.737992                       # Number of instructions fetched each cycle (Total)
system.switch_cpus_1.fetch.rateDist::underflows            0      0.00%      0.00% # Number of instructions fetched each cycle (Total)
system.switch_cpus_1.fetch.rateDist::0           1601     35.82%     35.82% # Number of instructions fetched each cycle (Total)
system.switch_cpus_1.fetch.rateDist::1            259      5.79%     41.61% # Number of instructions fetched each cycle (Total)
system.switch_cpus_1.fetch.rateDist::2             14      0.31%     41.92% # Number of instructions fetched each cycle (Total)
system.switch_cpus_1.fetch.rateDist::3            149      3.33%     45.26% # Number of instructions fetched each cycle (Total)
system.switch_cpus_1.fetch.rateDist::4            155      3.47%     48.72% # Number of instructions fetched each cycle (Total)
system.switch_cpus_1.fetch.rateDist::5             87      1.95%     50.67% # Number of instructions fetched each cycle (Total)
system.switch_cpus_1.fetch.rateDist::6              9      0.20%     50.87% # Number of instructions fetched each cycle (Total)
system.switch_cpus_1.fetch.rateDist::7             70      1.57%     52.44% # Number of instructions fetched each cycle (Total)
system.switch_cpus_1.fetch.rateDist::8           2126     47.56%    100.00% # Number of instructions fetched each cycle (Total)
system.switch_cpus_1.fetch.rateDist::overflows            0      0.00%    100.00% # Number of instructions fetched each cycle (Total)
system.switch_cpus_1.fetch.rateDist::min_value            0                       # Number of instructions fetched each cycle (Total)
system.switch_cpus_1.fetch.rateDist::max_value            8                       # Number of instructions fetched each cycle (Total)
system.switch_cpus_1.fetch.rateDist::total         4470                       # Number of instructions fetched each cycle (Total)
system.switch_cpus_1.iew.branchMispredicts          233                       # Number of branch mispredicts detected at execute
system.switch_cpus_1.iew.exec_branches            602                       # Number of branches executed
system.switch_cpus_1.iew.exec_nop                   0                       # number of nop insts executed
system.switch_cpus_1.iew.exec_rate           2.137136                       # Inst execution rate
system.switch_cpus_1.iew.exec_refs               2589                       # number of memory reference insts executed
system.switch_cpus_1.iew.exec_stores              530                       # Number of stores executed
system.switch_cpus_1.iew.exec_swp                   0                       # number of swp insts executed
system.switch_cpus_1.iew.iewBlockCycles          1239                       # Number of cycles IEW is blocking
system.switch_cpus_1.iew.iewDispLoadInsts         2890                       # Number of dispatched load instructions
system.switch_cpus_1.iew.iewDispNonSpecInsts            0                       # Number of dispatched non-speculative instructions
system.switch_cpus_1.iew.iewDispSquashedInsts            0                       # Number of squashed instructions skipped by dispatch
system.switch_cpus_1.iew.iewDispStoreInsts          988                       # Number of dispatched store instructions
system.switch_cpus_1.iew.iewDispatchedInsts        13357                       # Number of instructions dispatched to IQ
system.switch_cpus_1.iew.iewExecLoadInsts         2059                       # Number of load instructions executed
system.switch_cpus_1.iew.iewExecSquashedInsts          654                       # Number of squashed instructions skipped in execute
system.switch_cpus_1.iew.iewExecutedInsts         9553                       # Number of executed instructions
system.switch_cpus_1.iew.iewIQFullEvents            0                       # Number of times the IQ has become full, causing a stall
system.switch_cpus_1.iew.iewIdleCycles              0                       # Number of cycles IEW is idle
system.switch_cpus_1.iew.iewLSQFullEvents            0                       # Number of times the LSQ has become full, causing a stall
system.switch_cpus_1.iew.iewSquashCycles          214                       # Number of cycles IEW is squashing
system.switch_cpus_1.iew.iewUnblockCycles            0                       # Number of cycles IEW is unblocking
system.switch_cpus_1.iew.lsq.thread0.blockedLoads            0                       # Number of blocked loads due to partial load-store forwarding
system.switch_cpus_1.iew.lsq.thread0.cacheBlocked            4                       # Number of times an access to memory failed due to the cache being blocked
system.switch_cpus_1.iew.lsq.thread0.forwLoads            0                       # Number of loads that had data forwarded from stores
system.switch_cpus_1.iew.lsq.thread0.ignoredResponses            0                       # Number of memory responses ignored because the instruction is squashed
system.switch_cpus_1.iew.lsq.thread0.invAddrLoads            0                       # Number of loads ignored due to an invalid address
system.switch_cpus_1.iew.lsq.thread0.invAddrSwpfs            0                       # Number of software prefetches ignored due to an invalid address
system.switch_cpus_1.iew.lsq.thread0.memOrderViolation            9                       # Number of memory ordering violations
system.switch_cpus_1.iew.lsq.thread0.rescheduledLoads            0                       # Number of loads that were rescheduled
system.switch_cpus_1.iew.lsq.thread0.squashedLoads         2368                       # Number of loads squashed
system.switch_cpus_1.iew.lsq.thread0.squashedStores          925                       # Number of stores squashed
system.switch_cpus_1.iew.memOrderViolationEvents            9                       # Number of memory order violations
system.switch_cpus_1.iew.predictedNotTakenIncorrect          225                       # Number of branches that were predicted not taken incorrectly
system.switch_cpus_1.iew.predictedTakenIncorrect            8                       # Number of branches that were predicted taken incorrectly
system.switch_cpus_1.iew.wb_consumers           10200                       # num instructions consuming a value
system.switch_cpus_1.iew.wb_count                9097                       # cumulative count of insts written-back
system.switch_cpus_1.iew.wb_fanout           0.691667                       # average fanout of values written-back
system.switch_cpus_1.iew.wb_producers            7055                       # num instructions producing a value
system.switch_cpus_1.iew.wb_rate             2.035123                       # insts written-back per cycle
system.switch_cpus_1.iew.wb_sent                 9403                       # cumulative count of insts sent to commit
system.switch_cpus_1.int_regfile_reads          15111                       # number of integer regfile reads
system.switch_cpus_1.int_regfile_writes          8258                       # number of integer regfile writes
system.switch_cpus_1.ipc                     0.375839                       # IPC: Instructions Per Cycle
system.switch_cpus_1.ipc_total               0.375839                       # IPC: Total IPC of All Threads
system.switch_cpus_1.iq.FU_type_0::No_OpClass           37      0.36%      0.36% # Type of FU issued
system.switch_cpus_1.iq.FU_type_0::IntAlu         7241     70.94%     71.30% # Type of FU issued
system.switch_cpus_1.iq.FU_type_0::IntMult            0      0.00%     71.30% # Type of FU issued
system.switch_cpus_1.iq.FU_type_0::IntDiv            0      0.00%     71.30% # Type of FU issued
system.switch_cpus_1.iq.FU_type_0::FloatAdd            0      0.00%     71.30% # Type of FU issued
system.switch_cpus_1.iq.FU_type_0::FloatCmp            0      0.00%     71.30% # Type of FU issued
system.switch_cpus_1.iq.FU_type_0::FloatCvt            0      0.00%     71.30% # Type of FU issued
system.switch_cpus_1.iq.FU_type_0::FloatMult            0      0.00%     71.30% # Type of FU issued
system.switch_cpus_1.iq.FU_type_0::FloatMultAcc            0      0.00%     71.30% # Type of FU issued
system.switch_cpus_1.iq.FU_type_0::FloatDiv            0      0.00%     71.30% # Type of FU issued
system.switch_cpus_1.iq.FU_type_0::FloatMisc            0      0.00%     71.30% # Type of FU issued
system.switch_cpus_1.iq.FU_type_0::FloatSqrt            0      0.00%     71.30% # Type of FU issued
system.switch_cpus_1.iq.FU_type_0::SimdAdd            0      0.00%     71.30% # Type of FU issued
system.switch_cpus_1.iq.FU_type_0::SimdAddAcc            0      0.00%     71.30% # Type of FU issued
system.switch_cpus_1.iq.FU_type_0::SimdAlu            0      0.00%     71.30% # Type of FU issued
system.switch_cpus_1.iq.FU_type_0::SimdCmp            0      0.00%     71.30% # Type of FU issued
system.switch_cpus_1.iq.FU_type_0::SimdCvt            0      0.00%     71.30% # Type of FU issued
system.switch_cpus_1.iq.FU_type_0::SimdMisc            0      0.00%     71.30% # Type of FU issued
system.switch_cpus_1.iq.FU_type_0::SimdMult            0      0.00%     71.30% # Type of FU issued
system.switch_cpus_1.iq.FU_type_0::SimdMultAcc            0      0.00%     71.30% # Type of FU issued
system.switch_cpus_1.iq.FU_type_0::SimdShift            0      0.00%     71.30% # Type of FU issued
system.switch_cpus_1.iq.FU_type_0::SimdShiftAcc            0      0.00%     71.30% # Type of FU issued
system.switch_cpus_1.iq.FU_type_0::SimdDiv            0      0.00%     71.30% # Type of FU issued
system.switch_cpus_1.iq.FU_type_0::SimdSqrt            0      0.00%     71.30% # Type of FU issued
system.switch_cpus_1.iq.FU_type_0::SimdFloatAdd            0      0.00%     71.30% # Type of FU issued
system.switch_cpus_1.iq.FU_type_0::SimdFloatAlu            0      0.00%     71.30% # Type of FU issued
system.switch_cpus_1.iq.FU_type_0::SimdFloatCmp            0      0.00%     71.30% # Type of FU issued
system.switch_cpus_1.iq.FU_type_0::SimdFloatCvt            0      0.00%     71.30% # Type of FU issued
system.switch_cpus_1.iq.FU_type_0::SimdFloatDiv            0      0.00%     71.30% # Type of FU issued
system.switch_cpus_1.iq.FU_type_0::SimdFloatMisc            0      0.00%     71.30% # Type of FU issued
system.switch_cpus_1.iq.FU_type_0::SimdFloatMult            0      0.00%     71.30% # Type of FU issued
system.switch_cpus_1.iq.FU_type_0::SimdFloatMultAcc            0      0.00%     71.30% # Type of FU issued
system.switch_cpus_1.iq.FU_type_0::SimdFloatSqrt            0      0.00%     71.30% # Type of FU issued
system.switch_cpus_1.iq.FU_type_0::SimdReduceAdd            0      0.00%     71.30% # Type of FU issued
system.switch_cpus_1.iq.FU_type_0::SimdReduceAlu            0      0.00%     71.30% # Type of FU issued
system.switch_cpus_1.iq.FU_type_0::SimdReduceCmp            0      0.00%     71.30% # Type of FU issued
system.switch_cpus_1.iq.FU_type_0::SimdFloatReduceAdd            0      0.00%     71.30% # Type of FU issued
system.switch_cpus_1.iq.FU_type_0::SimdFloatReduceCmp            0      0.00%     71.30% # Type of FU issued
system.switch_cpus_1.iq.FU_type_0::SimdAes            0      0.00%     71.30% # Type of FU issued
system.switch_cpus_1.iq.FU_type_0::SimdAesMix            0      0.00%     71.30% # Type of FU issued
system.switch_cpus_1.iq.FU_type_0::SimdSha1Hash            0      0.00%     71.30% # Type of FU issued
system.switch_cpus_1.iq.FU_type_0::SimdSha1Hash2            0      0.00%     71.30% # Type of FU issued
system.switch_cpus_1.iq.FU_type_0::SimdSha256Hash            0      0.00%     71.30% # Type of FU issued
system.switch_cpus_1.iq.FU_type_0::SimdSha256Hash2            0      0.00%     71.30% # Type of FU issued
system.switch_cpus_1.iq.FU_type_0::SimdShaSigma2            0      0.00%     71.30% # Type of FU issued
system.switch_cpus_1.iq.FU_type_0::SimdShaSigma3            0      0.00%     71.30% # Type of FU issued
system.switch_cpus_1.iq.FU_type_0::SimdPredAlu            0      0.00%     71.30% # Type of FU issued
system.switch_cpus_1.iq.FU_type_0::MemRead         2356     23.08%     94.39% # Type of FU issued
system.switch_cpus_1.iq.FU_type_0::MemWrite          573      5.61%    100.00% # Type of FU issued
system.switch_cpus_1.iq.FU_type_0::FloatMemRead            0      0.00%    100.00% # Type of FU issued
system.switch_cpus_1.iq.FU_type_0::FloatMemWrite            0      0.00%    100.00% # Type of FU issued
system.switch_cpus_1.iq.FU_type_0::IprAccess            0      0.00%    100.00% # Type of FU issued
system.switch_cpus_1.iq.FU_type_0::InstPrefetch            0      0.00%    100.00% # Type of FU issued
system.switch_cpus_1.iq.FU_type_0::total        10207                       # Type of FU issued
system.switch_cpus_1.iq.fp_alu_accesses             0                       # Number of floating point alu accesses
system.switch_cpus_1.iq.fp_inst_queue_reads            0                       # Number of floating instruction queue reads
system.switch_cpus_1.iq.fp_inst_queue_wakeup_accesses            0                       # Number of floating instruction queue wakeup accesses
system.switch_cpus_1.iq.fp_inst_queue_writes            0                       # Number of floating instruction queue writes
system.switch_cpus_1.iq.fu_busy_cnt               108                       # FU busy when requested
system.switch_cpus_1.iq.fu_busy_rate         0.010581                       # FU busy rate (busy events/executed inst)
system.switch_cpus_1.iq.fu_full::No_OpClass            0      0.00%      0.00% # attempts to use FU when none available
system.switch_cpus_1.iq.fu_full::IntAlu            72     66.67%     66.67% # attempts to use FU when none available
system.switch_cpus_1.iq.fu_full::IntMult            0      0.00%     66.67% # attempts to use FU when none available
system.switch_cpus_1.iq.fu_full::IntDiv             0      0.00%     66.67% # attempts to use FU when none available
system.switch_cpus_1.iq.fu_full::FloatAdd            0      0.00%     66.67% # attempts to use FU when none available
system.switch_cpus_1.iq.fu_full::FloatCmp            0      0.00%     66.67% # attempts to use FU when none available
system.switch_cpus_1.iq.fu_full::FloatCvt            0      0.00%     66.67% # attempts to use FU when none available
system.switch_cpus_1.iq.fu_full::FloatMult            0      0.00%     66.67% # attempts to use FU when none available
system.switch_cpus_1.iq.fu_full::FloatMultAcc            0      0.00%     66.67% # attempts to use FU when none available
system.switch_cpus_1.iq.fu_full::FloatDiv            0      0.00%     66.67% # attempts to use FU when none available
system.switch_cpus_1.iq.fu_full::FloatMisc            0      0.00%     66.67% # attempts to use FU when none available
system.switch_cpus_1.iq.fu_full::FloatSqrt            0      0.00%     66.67% # attempts to use FU when none available
system.switch_cpus_1.iq.fu_full::SimdAdd            0      0.00%     66.67% # attempts to use FU when none available
system.switch_cpus_1.iq.fu_full::SimdAddAcc            0      0.00%     66.67% # attempts to use FU when none available
system.switch_cpus_1.iq.fu_full::SimdAlu            0      0.00%     66.67% # attempts to use FU when none available
system.switch_cpus_1.iq.fu_full::SimdCmp            0      0.00%     66.67% # attempts to use FU when none available
system.switch_cpus_1.iq.fu_full::SimdCvt            0      0.00%     66.67% # attempts to use FU when none available
system.switch_cpus_1.iq.fu_full::SimdMisc            0      0.00%     66.67% # attempts to use FU when none available
system.switch_cpus_1.iq.fu_full::SimdMult            0      0.00%     66.67% # attempts to use FU when none available
system.switch_cpus_1.iq.fu_full::SimdMultAcc            0      0.00%     66.67% # attempts to use FU when none available
system.switch_cpus_1.iq.fu_full::SimdShift            0      0.00%     66.67% # attempts to use FU when none available
system.switch_cpus_1.iq.fu_full::SimdShiftAcc            0      0.00%     66.67% # attempts to use FU when none available
system.switch_cpus_1.iq.fu_full::SimdDiv            0      0.00%     66.67% # attempts to use FU when none available
system.switch_cpus_1.iq.fu_full::SimdSqrt            0      0.00%     66.67% # attempts to use FU when none available
system.switch_cpus_1.iq.fu_full::SimdFloatAdd            0      0.00%     66.67% # attempts to use FU when none available
system.switch_cpus_1.iq.fu_full::SimdFloatAlu            0      0.00%     66.67% # attempts to use FU when none available
system.switch_cpus_1.iq.fu_full::SimdFloatCmp            0      0.00%     66.67% # attempts to use FU when none available
system.switch_cpus_1.iq.fu_full::SimdFloatCvt            0      0.00%     66.67% # attempts to use FU when none available
system.switch_cpus_1.iq.fu_full::SimdFloatDiv            0      0.00%     66.67% # attempts to use FU when none available
system.switch_cpus_1.iq.fu_full::SimdFloatMisc            0      0.00%     66.67% # attempts to use FU when none available
system.switch_cpus_1.iq.fu_full::SimdFloatMult            0      0.00%     66.67% # attempts to use FU when none available
system.switch_cpus_1.iq.fu_full::SimdFloatMultAcc            0      0.00%     66.67% # attempts to use FU when none available
system.switch_cpus_1.iq.fu_full::SimdFloatSqrt            0      0.00%     66.67% # attempts to use FU when none available
system.switch_cpus_1.iq.fu_full::SimdReduceAdd            0      0.00%     66.67% # attempts to use FU when none available
system.switch_cpus_1.iq.fu_full::SimdReduceAlu            0      0.00%     66.67% # attempts to use FU when none available
system.switch_cpus_1.iq.fu_full::SimdReduceCmp            0      0.00%     66.67% # attempts to use FU when none available
system.switch_cpus_1.iq.fu_full::SimdFloatReduceAdd            0      0.00%     66.67% # attempts to use FU when none available
system.switch_cpus_1.iq.fu_full::SimdFloatReduceCmp            0      0.00%     66.67% # attempts to use FU when none available
system.switch_cpus_1.iq.fu_full::SimdAes            0      0.00%     66.67% # attempts to use FU when none available
system.switch_cpus_1.iq.fu_full::SimdAesMix            0      0.00%     66.67% # attempts to use FU when none available
system.switch_cpus_1.iq.fu_full::SimdSha1Hash            0      0.00%     66.67% # attempts to use FU when none available
system.switch_cpus_1.iq.fu_full::SimdSha1Hash2            0      0.00%     66.67% # attempts to use FU when none available
system.switch_cpus_1.iq.fu_full::SimdSha256Hash            0      0.00%     66.67% # attempts to use FU when none available
system.switch_cpus_1.iq.fu_full::SimdSha256Hash2            0      0.00%     66.67% # attempts to use FU when none available
system.switch_cpus_1.iq.fu_full::SimdShaSigma2            0      0.00%     66.67% # attempts to use FU when none available
system.switch_cpus_1.iq.fu_full::SimdShaSigma3            0      0.00%     66.67% # attempts to use FU when none available
system.switch_cpus_1.iq.fu_full::SimdPredAlu            0      0.00%     66.67% # attempts to use FU when none available
system.switch_cpus_1.iq.fu_full::MemRead           36     33.33%    100.00% # attempts to use FU when none available
system.switch_cpus_1.iq.fu_full::MemWrite            0      0.00%    100.00% # attempts to use FU when none available
system.switch_cpus_1.iq.fu_full::FloatMemRead            0      0.00%    100.00% # attempts to use FU when none available
system.switch_cpus_1.iq.fu_full::FloatMemWrite            0      0.00%    100.00% # attempts to use FU when none available
system.switch_cpus_1.iq.fu_full::IprAccess            0      0.00%    100.00% # attempts to use FU when none available
system.switch_cpus_1.iq.fu_full::InstPrefetch            0      0.00%    100.00% # attempts to use FU when none available
system.switch_cpus_1.iq.int_alu_accesses        10278                       # Number of integer alu accesses
system.switch_cpus_1.iq.int_inst_queue_reads        25066                       # Number of integer instruction queue reads
system.switch_cpus_1.iq.int_inst_queue_wakeup_accesses         9097                       # Number of integer instruction queue wakeup accesses
system.switch_cpus_1.iq.int_inst_queue_writes        23822                       # Number of integer instruction queue writes
system.switch_cpus_1.iq.iqInstsAdded            13357                       # Number of instructions added to the IQ (excludes non-spec)
system.switch_cpus_1.iq.iqInstsIssued           10207                       # Number of instructions issued
system.switch_cpus_1.iq.iqSquashedInstsExamined        10459                       # Number of squashed instructions iterated over during squash; mainly for profiling
system.switch_cpus_1.iq.iqSquashedInstsIssued           74                       # Number of squashed instructions issued
system.switch_cpus_1.iq.iqSquashedOperandsExamined        14029                       # Number of squashed operands that are examined and possibly removed from graph
system.switch_cpus_1.iq.issued_per_cycle::samples         4470                       # Number of insts issued each cycle
system.switch_cpus_1.iq.issued_per_cycle::mean     2.283445                       # Number of insts issued each cycle
system.switch_cpus_1.iq.issued_per_cycle::stdev     2.901681                       # Number of insts issued each cycle
system.switch_cpus_1.iq.issued_per_cycle::underflows            0      0.00%      0.00% # Number of insts issued each cycle
system.switch_cpus_1.iq.issued_per_cycle::0         2411     53.94%     53.94% # Number of insts issued each cycle
system.switch_cpus_1.iq.issued_per_cycle::1          192      4.30%     58.23% # Number of insts issued each cycle
system.switch_cpus_1.iq.issued_per_cycle::2          164      3.67%     61.90% # Number of insts issued each cycle
system.switch_cpus_1.iq.issued_per_cycle::3          284      6.35%     68.26% # Number of insts issued each cycle
system.switch_cpus_1.iq.issued_per_cycle::4          218      4.88%     73.13% # Number of insts issued each cycle
system.switch_cpus_1.iq.issued_per_cycle::5          173      3.87%     77.00% # Number of insts issued each cycle
system.switch_cpus_1.iq.issued_per_cycle::6          408      9.13%     86.13% # Number of insts issued each cycle
system.switch_cpus_1.iq.issued_per_cycle::7          310      6.94%     93.06% # Number of insts issued each cycle
system.switch_cpus_1.iq.issued_per_cycle::8          310      6.94%    100.00% # Number of insts issued each cycle
system.switch_cpus_1.iq.issued_per_cycle::overflows            0      0.00%    100.00% # Number of insts issued each cycle
system.switch_cpus_1.iq.issued_per_cycle::min_value            0                       # Number of insts issued each cycle
system.switch_cpus_1.iq.issued_per_cycle::max_value            8                       # Number of insts issued each cycle
system.switch_cpus_1.iq.issued_per_cycle::total         4470                       # Number of insts issued each cycle
system.switch_cpus_1.iq.rate                 2.283445                       # Inst issue rate
system.switch_cpus_1.iq.vec_alu_accesses            0                       # Number of vector alu accesses
system.switch_cpus_1.iq.vec_inst_queue_reads            0                       # Number of vector instruction queue reads
system.switch_cpus_1.iq.vec_inst_queue_wakeup_accesses            0                       # Number of vector instruction queue wakeup accesses
system.switch_cpus_1.iq.vec_inst_queue_writes            0                       # Number of vector instruction queue writes
system.switch_cpus_1.itb.rdAccesses                 0                       # TLB accesses on read requests
system.switch_cpus_1.itb.rdMisses                   0                       # TLB misses on read requests
system.switch_cpus_1.itb.wrAccesses              1120                       # TLB accesses on write requests
system.switch_cpus_1.itb.wrMisses                  76                       # TLB misses on write requests
system.switch_cpus_1.memDep0.conflictingLoads          183                       # Number of conflicting loads.
system.switch_cpus_1.memDep0.conflictingStores           54                       # Number of conflicting stores.
system.switch_cpus_1.memDep0.insertedLoads         2890                       # Number of loads inserted to the mem dependence unit.
system.switch_cpus_1.memDep0.insertedStores          988                       # Number of stores inserted to the mem dependence unit.
system.switch_cpus_1.misc_regfile_reads          4235                       # number of misc regfile reads
system.switch_cpus_1.numCycles                   4470                       # number of cpu cycles simulated
system.switch_cpus_1.numWorkItemsCompleted            0                       # number of work items this cpu completed
system.switch_cpus_1.numWorkItemsStarted            0                       # number of work items this cpu started
system.switch_cpus_1.rename.BlockCycles          1232                       # Number of cycles rename is blocking
system.switch_cpus_1.rename.CommittedMaps         3458                       # Number of HB maps that are committed
system.switch_cpus_1.rename.IQFullEvents            5                       # Number of times rename has blocked due to IQ full
system.switch_cpus_1.rename.IdleCycles            917                       # Number of cycles rename is idle
system.switch_cpus_1.rename.LQFullEvents           24                       # Number of times rename has blocked due to LQ full
system.switch_cpus_1.rename.RenameLookups        42487                       # Number of register rename lookups that rename has made
system.switch_cpus_1.rename.RenamedInsts        15863                       # Number of instructions processed by rename
system.switch_cpus_1.rename.RenamedOperands        17612                       # Number of destination operands rename has renamed
system.switch_cpus_1.rename.RunCycles            2053                       # Number of cycles rename is running
system.switch_cpus_1.rename.SquashCycles          214                       # Number of cycles rename is squashing
system.switch_cpus_1.rename.UnblockCycles           26                       # Number of cycles rename is unblocking
system.switch_cpus_1.rename.UndoneMaps          14148                       # Number of HB maps that are undone due to squashing
system.switch_cpus_1.rename.int_rename_lookups        27739                       # Number of integer rename lookups
system.switch_cpus_1.rename.serializeStallCycles            0                       # count of cycles rename stalled for serializing inst
system.switch_cpus_1.rename.serializingInsts            0                       # count of serializing insts renamed
system.switch_cpus_1.rename.skidInsts              61                       # count of insts added to the skid buffer
system.switch_cpus_1.rename.tempSerializingInsts            0                       # count of temporary serializing insts renamed
system.switch_cpus_1.rob.rob_reads              16213                       # The number of ROB reads
system.switch_cpus_1.rob.rob_writes             28129                       # The number of ROB writes
system.tol2bus.snoop_filter.hit_multi_requests            0                       # Number of requests hitting in the snoop filter with multiple (>1) holders of the requested data.
system.tol2bus.snoop_filter.hit_multi_snoops            0                       # Number of snoops hitting in the snoop filter with multiple (>1) holders of the requested data.
system.tol2bus.snoop_filter.hit_single_requests           53                       # Number of requests hitting in the snoop filter with a single holder of the requested data.
system.tol2bus.snoop_filter.hit_single_snoops            0                       # Number of snoops hitting in the snoop filter with a single holder of the requested data.
system.tol2bus.snoop_filter.tot_requests          106                       # Total number of requests made to the snoop filter.
system.tol2bus.snoop_filter.tot_snoops              0                       # Total number of snoops made to the snoop filter.
system.tol3bus.snoop_filter.hit_multi_requests            0                       # Number of requests hitting in the snoop filter with multiple (>1) holders of the requested data.
system.tol3bus.snoop_filter.hit_multi_snoops            0                       # Number of snoops hitting in the snoop filter with multiple (>1) holders of the requested data.
system.tol3bus.snoop_filter.hit_single_requests            0                       # Number of requests hitting in the snoop filter with a single holder of the requested data.
system.tol3bus.snoop_filter.hit_single_snoops            0                       # Number of snoops hitting in the snoop filter with a single holder of the requested data.
system.tol3bus.snoop_filter.tot_requests            0                       # Total number of requests made to the snoop filter.
system.tol3bus.snoop_filter.tot_snoops              0                       # Total number of snoops made to the snoop filter.
system.membus.snoops                                0                       # Total snoops (count)
system.membus.snoopTraffic                          0                       # Total snoop traffic (bytes)
system.membus.snoop_fanout::samples                 0                       # Request fanout histogram
system.membus.snoop_fanout::mean                  nan                       # Request fanout histogram
system.membus.snoop_fanout::stdev                 nan                       # Request fanout histogram
system.membus.snoop_fanout::underflows              0                       # Request fanout histogram
system.membus.snoop_fanout::0                       0                       # Request fanout histogram
system.membus.snoop_fanout::1                       0                       # Request fanout histogram
system.membus.snoop_fanout::overflows               0                       # Request fanout histogram
system.membus.snoop_fanout::min_value               0                       # Request fanout histogram
system.membus.snoop_fanout::max_value               0                       # Request fanout histogram
system.membus.snoop_fanout::total                   0                       # Request fanout histogram
system.membus.power_state.pwrStateResidencyTicks::UNDEFINED 635753441500                       # Cumulative time (in ticks) in various power states
system.switch_cpus_1.dtb.walker.power_state.pwrStateResidencyTicks::UNDEFINED 635753441500                       # Cumulative time (in ticks) in various power states
system.switch_cpus_1.itb.walker.power_state.pwrStateResidencyTicks::UNDEFINED 635753441500                       # Cumulative time (in ticks) in various power states
system.switch_cpus_1.power_state.pwrStateResidencyTicks::OFF 635753441500                       # Cumulative time (in ticks) in various power states
system.switch_cpus.dtb.walker.power_state.pwrStateResidencyTicks::UNDEFINED 635753441500                       # Cumulative time (in ticks) in various power states
system.switch_cpus.itb.walker.power_state.pwrStateResidencyTicks::UNDEFINED 635753441500                       # Cumulative time (in ticks) in various power states
system.switch_cpus.power_state.numTransitions            1                       # Number of power state transitions
system.switch_cpus.power_state.pwrStateResidencyTicks::OFF 635753441500                       # Cumulative time (in ticks) in various power states
system.tol2bus.trans_dist::ReadResp                53                       # Transaction distribution
system.tol2bus.trans_dist::WritebackDirty           33                       # Transaction distribution
system.tol2bus.trans_dist::CleanEvict              20                       # Transaction distribution
system.tol2bus.trans_dist::ReadSharedReq           53                       # Transaction distribution
system.tol2bus.pkt_count_system.cpu.dcache.mem_side::system.l2.cpu_side          159                       # Packet count per connected master and slave (bytes)
system.tol2bus.pkt_count::total                   159                       # Packet count per connected master and slave (bytes)
system.tol2bus.pkt_size_system.cpu.dcache.mem_side::system.l2.cpu_side         5504                       # Cumulative packet size per connected master and slave (bytes)
system.tol2bus.pkt_size::total                   5504                       # Cumulative packet size per connected master and slave (bytes)
system.tol2bus.snoops                               0                       # Total snoops (count)
system.tol2bus.snoopTraffic                         0                       # Total snoop traffic (bytes)
system.tol2bus.snoop_fanout::samples               53                       # Request fanout histogram
system.tol2bus.snoop_fanout::mean                   0                       # Request fanout histogram
system.tol2bus.snoop_fanout::stdev                  0                       # Request fanout histogram
system.tol2bus.snoop_fanout::underflows             0      0.00%      0.00% # Request fanout histogram
system.tol2bus.snoop_fanout::0                     53    100.00%    100.00% # Request fanout histogram
system.tol2bus.snoop_fanout::1                      0      0.00%    100.00% # Request fanout histogram
system.tol2bus.snoop_fanout::2                      0      0.00%    100.00% # Request fanout histogram
system.tol2bus.snoop_fanout::3                      0      0.00%    100.00% # Request fanout histogram
system.tol2bus.snoop_fanout::4                      0      0.00%    100.00% # Request fanout histogram
system.tol2bus.snoop_fanout::overflows              0      0.00%    100.00% # Request fanout histogram
system.tol2bus.snoop_fanout::min_value              0                       # Request fanout histogram
system.tol2bus.snoop_fanout::max_value              0                       # Request fanout histogram
system.tol2bus.snoop_fanout::total                 53                       # Request fanout histogram
system.tol2bus.reqLayer0.occupancy              86000                       # Layer occupancy (ticks)
system.tol2bus.reqLayer0.utilization              3.8                       # Layer utilization (%)
system.tol2bus.respLayer1.occupancy             79500                       # Layer occupancy (ticks)
system.tol2bus.respLayer1.utilization             3.6                       # Layer utilization (%)
system.tol2bus.power_state.pwrStateResidencyTicks::UNDEFINED 635753441500                       # Cumulative time (in ticks) in various power states
system.voltage_domain.voltage                       1                       # Voltage in Volts
system.clk_domain.clock                          1000                       # Clock period in ticks
system.l2.demand_hits::.switch_cpus_1.data           53                       # number of demand (read+write) hits
system.l2.demand_hits::total                       53                       # number of demand (read+write) hits
system.l2.overall_hits::.switch_cpus_1.data           53                       # number of overall hits
system.l2.overall_hits::total                      53                       # number of overall hits
system.l2.demand_accesses::.switch_cpus_1.data           53                       # number of demand (read+write) accesses
system.l2.demand_accesses::total                   53                       # number of demand (read+write) accesses
system.l2.overall_accesses::.switch_cpus_1.data           53                       # number of overall (read+write) accesses
system.l2.overall_accesses::total                  53                       # number of overall (read+write) accesses
system.l2.blocked_cycles::no_mshrs                  0                       # number of cycles access was blocked
system.l2.blocked_cycles::no_targets                0                       # number of cycles access was blocked
system.l2.blocked::no_mshrs                         0                       # number of cycles access was blocked
system.l2.blocked::no_targets                       0                       # number of cycles access was blocked
system.l2.avg_blocked_cycles::no_mshrs            nan                       # average number of cycles each access was blocked
system.l2.avg_blocked_cycles::no_targets          nan                       # average number of cycles each access was blocked
system.l2.replacements                              0                       # number of replacements
system.l2.WritebackDirty_hits::.writebacks           33                       # number of WritebackDirty hits
system.l2.WritebackDirty_hits::total               33                       # number of WritebackDirty hits
system.l2.WritebackDirty_accesses::.writebacks           33                       # number of WritebackDirty accesses(hits+misses)
system.l2.WritebackDirty_accesses::total           33                       # number of WritebackDirty accesses(hits+misses)
system.l2.ReadSharedReq_hits::.switch_cpus_1.data           53                       # number of ReadSharedReq hits
system.l2.ReadSharedReq_hits::total                53                       # number of ReadSharedReq hits
system.l2.ReadSharedReq_accesses::.switch_cpus_1.data           53                       # number of ReadSharedReq accesses(hits+misses)
system.l2.ReadSharedReq_accesses::total            53                       # number of ReadSharedReq accesses(hits+misses)
system.l2.power_state.pwrStateResidencyTicks::UNDEFINED 635753441500                       # Cumulative time (in ticks) in various power states
system.l2.tags.tagsinuse                         4096                       # Cycle average of tags in use
system.l2.tags.total_refs                       91624                       # Total number of references to valid blocks.
system.l2.tags.sampled_refs                      4096                       # Sample count of references to valid blocks.
system.l2.tags.avg_refs                     22.369141                       # Average number of references to valid blocks.
system.l2.tags.warmup_cycle                         0                       # Cycle when the warmup percentage was hit.
system.l2.tags.occ_blocks::.writebacks             14                       # Average occupied blocks per requestor
system.l2.tags.occ_blocks::.cpu.data             3931                       # Average occupied blocks per requestor
system.l2.tags.occ_blocks::.switch_cpus.data          151                       # Average occupied blocks per requestor
system.l2.tags.occ_percent::.writebacks      0.003418                       # Average percentage of cache occupancy
system.l2.tags.occ_percent::.cpu.data        0.959717                       # Average percentage of cache occupancy
system.l2.tags.occ_percent::.switch_cpus.data     0.036865                       # Average percentage of cache occupancy
system.l2.tags.occ_percent::total                   1                       # Average percentage of cache occupancy
system.l2.tags.occ_task_id_blocks::1024          4096                       # Occupied blocks per task id
system.l2.tags.age_task_id_blocks_1024::1          155                       # Occupied blocks per task id
system.l2.tags.age_task_id_blocks_1024::2         1460                       # Occupied blocks per task id
system.l2.tags.age_task_id_blocks_1024::3         2472                       # Occupied blocks per task id
system.l2.tags.age_task_id_blocks_1024::4            9                       # Occupied blocks per task id
system.l2.tags.occ_task_id_percent::1024            1                       # Percentage of cache occupancy per task id
system.l2.tags.tag_accesses                       848                       # Number of tag accesses
system.l2.tags.data_accesses                      848                       # Number of data accesses
system.l2.tags.cache_friendly                       0                       # Number of cache friendly accesses
system.l2.tags.cache_averse                       106                       # Number of cache averse accesses
system.l2.tags.OPT_hits                             0                       # Number of OPT hits
system.l2.tags.OPT_misses                           0                       # Number of OPT misses
system.l2.tags.OPT_nan                            106                       # Number of OPT nan
system.l2.tags.power_state.pwrStateResidencyTicks::UNDEFINED 635753441500                       # Cumulative time (in ticks) in various power states
system.l3.blocked_cycles::no_mshrs                  0                       # number of cycles access was blocked
system.l3.blocked_cycles::no_targets                0                       # number of cycles access was blocked
system.l3.blocked::no_mshrs                         0                       # number of cycles access was blocked
system.l3.blocked::no_targets                       0                       # number of cycles access was blocked
system.l3.avg_blocked_cycles::no_mshrs            nan                       # average number of cycles each access was blocked
system.l3.avg_blocked_cycles::no_targets          nan                       # average number of cycles each access was blocked
system.l3.replacements                              0                       # number of replacements
system.l3.power_state.pwrStateResidencyTicks::UNDEFINED 635753441500                       # Cumulative time (in ticks) in various power states
system.l3.tags.tagsinuse                        32768                       # Cycle average of tags in use
system.l3.tags.total_refs                      151210                       # Total number of references to valid blocks.
system.l3.tags.sampled_refs                     32768                       # Sample count of references to valid blocks.
system.l3.tags.avg_refs                      4.614563                       # Average number of references to valid blocks.
system.l3.tags.warmup_cycle                         0                       # Cycle when the warmup percentage was hit.
system.l3.tags.occ_blocks::.writebacks          10447                       # Average occupied blocks per requestor
system.l3.tags.occ_blocks::.cpu.inst              925                       # Average occupied blocks per requestor
system.l3.tags.occ_blocks::.cpu.data            21367                       # Average occupied blocks per requestor
system.l3.tags.occ_blocks::.switch_cpus.data           29                       # Average occupied blocks per requestor
system.l3.tags.occ_percent::.writebacks      0.318817                       # Average percentage of cache occupancy
[...]
system.cpu.dcache.demand_miss_latency::.switch_cpus_1.data       747500                       # number of demand (read+write) miss cycles
system.cpu.dcache.demand_miss_latency::total     24179000                       # number of demand (read+write) miss cycles
system.cpu.dcache.overall_miss_latency::.switch_cpus.data     23431500                       # number of overall miss cycles
system.cpu.dcache.overall_miss_latency::.switch_cpus_1.data       747500                       # number of overall miss cycles
system.cpu.dcache.overall_miss_latency::total     24179000                       # number of overall miss cycles
system.cpu.dcache.demand_accesses::.cpu.data    225050977                       # number of demand (read+write) accesses
system.cpu.dcache.demand_accesses::.switch_cpus.data        16717                       # number of demand (read+write) accesses
system.cpu.dcache.demand_accesses::.switch_cpus_1.data         2100                       # number of demand (read+write) accesses
system.cpu.dcache.demand_accesses::total    225069794                       # number of demand (read+write) accesses
system.cpu.dcache.overall_accesses::.cpu.data    225195405                       # number of overall (read+write) accesses
system.cpu.dcache.overall_accesses::.switch_cpus.data        16717                       # number of overall (read+write) accesses
system.cpu.dcache.overall_accesses::.switch_cpus_1.data         2100                       # number of overall (read+write) accesses
system.cpu.dcache.overall_accesses::total    225214222                       # number of overall (read+write) accesses
system.cpu.dcache.demand_miss_rate::.cpu.data     0.033576                       # miss rate for demand accesses
system.cpu.dcache.demand_miss_rate::.switch_cpus.data     0.104564                       # miss rate for demand accesses
system.cpu.dcache.demand_miss_rate::.switch_cpus_1.data     0.058095                       # miss rate for demand accesses
system.cpu.dcache.demand_miss_rate::total     0.033582                       # miss rate for demand accesses
system.cpu.dcache.overall_miss_rate::.cpu.data     0.034196                       # miss rate for overall accesses
system.cpu.dcache.overall_miss_rate::.switch_cpus.data     0.104564                       # miss rate for overall accesses
system.cpu.dcache.overall_miss_rate::.switch_cpus_1.data     0.058095                       # miss rate for overall accesses
system.cpu.dcache.overall_miss_rate::total     0.034202                       # miss rate for overall accesses
system.cpu.dcache.demand_avg_miss_latency::.switch_cpus.data 13404.748284                       # average overall miss latency
system.cpu.dcache.demand_avg_miss_latency::.switch_cpus_1.data  6127.049180                       # average overall miss latency
system.cpu.dcache.demand_avg_miss_latency::total     3.199015                       # average overall miss latency
system.cpu.dcache.overall_avg_miss_latency::.switch_cpus.data 13404.748284                       # average overall miss latency
system.cpu.dcache.overall_avg_miss_latency::.switch_cpus_1.data  6127.049180                       # average overall miss latency
system.cpu.dcache.overall_avg_miss_latency::total     3.139032                       # average overall miss latency
system.cpu.dcache.blocked_cycles::no_mshrs           17                       # number of cycles access was blocked
system.cpu.dcache.blocked_cycles::no_targets            0                       # number of cycles access was blocked
system.cpu.dcache.blocked::no_mshrs                 4                       # number of cycles access was blocked
system.cpu.dcache.blocked::no_targets               0                       # number of cycles access was blocked
system.cpu.dcache.avg_blocked_cycles::no_mshrs     4.250000                       # average number of cycles each access was blocked
system.cpu.dcache.avg_blocked_cycles::no_targets          nan                       # average number of cycles each access was blocked
system.cpu.dcache.writebacks::.writebacks      4777947                       # number of writebacks
system.cpu.dcache.writebacks::total           4777947                       # number of writebacks
system.cpu.dcache.demand_mshr_hits::.switch_cpus_1.data           69                       # number of demand (read+write) MSHR hits
system.cpu.dcache.demand_mshr_hits::total           69                       # number of demand (read+write) MSHR hits
system.cpu.dcache.overall_mshr_hits::.switch_cpus_1.data           69                       # number of overall MSHR hits
system.cpu.dcache.overall_mshr_hits::total           69                       # number of overall MSHR hits
system.cpu.dcache.demand_mshr_misses::.switch_cpus.data         1748                       # number of demand (read+write) MSHR misses
system.cpu.dcache.demand_mshr_misses::.switch_cpus_1.data           53                       # number of demand (read+write) MSHR misses
system.cpu.dcache.demand_mshr_misses::total         1801                       # number of demand (read+write) MSHR misses
system.cpu.dcache.overall_mshr_misses::.switch_cpus.data         1748                       # number of overall MSHR misses
system.cpu.dcache.overall_mshr_misses::.switch_cpus_1.data           53                       # number of overall MSHR misses
system.cpu.dcache.overall_mshr_misses::total         1801                       # number of overall MSHR misses
system.cpu.dcache.demand_mshr_miss_latency::.switch_cpus.data     22557500                       # number of demand (read+write) MSHR miss cycles
system.cpu.dcache.demand_mshr_miss_latency::.switch_cpus_1.data       363000                       # number of demand (read+write) MSHR miss cycles
system.cpu.dcache.demand_mshr_miss_latency::total     22920500                       # number of demand (read+write) MSHR miss cycles
system.cpu.dcache.overall_mshr_miss_latency::.switch_cpus.data     22557500                       # number of overall MSHR miss cycles
system.cpu.dcache.overall_mshr_miss_latency::.switch_cpus_1.data       363000                       # number of overall MSHR miss cycles
system.cpu.dcache.overall_mshr_miss_latency::total     22920500                       # number of overall MSHR miss cycles
system.cpu.dcache.demand_mshr_miss_rate::.switch_cpus.data     0.104564                       # mshr miss rate for demand accesses
system.cpu.dcache.demand_mshr_miss_rate::.switch_cpus_1.data     0.025238                       # mshr miss rate for demand accesses
system.cpu.dcache.demand_mshr_miss_rate::total     0.000008                       # mshr miss rate for demand accesses
system.cpu.dcache.overall_mshr_miss_rate::.switch_cpus.data     0.104564                       # mshr miss rate for overall accesses
system.cpu.dcache.overall_mshr_miss_rate::.switch_cpus_1.data     0.025238                       # mshr miss rate for overall accesses
system.cpu.dcache.overall_mshr_miss_rate::total     0.000008                       # mshr miss rate for overall accesses
system.cpu.dcache.demand_avg_mshr_miss_latency::.switch_cpus.data 12904.748284                       # average overall mshr miss latency
system.cpu.dcache.demand_avg_mshr_miss_latency::.switch_cpus_1.data  6849.056604                       # average overall mshr miss latency
system.cpu.dcache.demand_avg_mshr_miss_latency::total 12726.540811                       # average overall mshr miss latency
system.cpu.dcache.overall_avg_mshr_miss_latency::.switch_cpus.data 12904.748284                       # average overall mshr miss latency
system.cpu.dcache.overall_avg_mshr_miss_latency::.switch_cpus_1.data  6849.056604                       # average overall mshr miss latency
system.cpu.dcache.overall_avg_mshr_miss_latency::total 12726.540811                       # average overall mshr miss latency
system.cpu.dcache.replacements                7701984                       # number of replacements
system.cpu.dcache.ReadReq_hits::.cpu.data    175183064                       # number of ReadReq hits
system.cpu.dcache.ReadReq_hits::.switch_cpus.data        13154                       # number of ReadReq hits
system.cpu.dcache.ReadReq_hits::.switch_cpus_1.data         1915                       # number of ReadReq hits
system.cpu.dcache.ReadReq_hits::total       175198133                       # number of ReadReq hits
system.cpu.dcache.ReadReq_misses::.cpu.data      6703018                       # number of ReadReq misses
system.cpu.dcache.ReadReq_misses::.switch_cpus.data         1604                       # number of ReadReq misses
system.cpu.dcache.ReadReq_misses::.switch_cpus_1.data          122                       # number of ReadReq misses
system.cpu.dcache.ReadReq_misses::total       6704744                       # number of ReadReq misses
system.cpu.dcache.ReadReq_miss_latency::.switch_cpus.data     22423500                       # number of ReadReq miss cycles
system.cpu.dcache.ReadReq_miss_latency::.switch_cpus_1.data       747500                       # number of ReadReq miss cycles
system.cpu.dcache.ReadReq_miss_latency::total     23171000                       # number of ReadReq miss cycles
system.cpu.dcache.ReadReq_accesses::.cpu.data    181886082                       # number of ReadReq accesses(hits+misses)
system.cpu.dcache.ReadReq_accesses::.switch_cpus.data        14758                       # number of ReadReq accesses(hits+misses)
system.cpu.dcache.ReadReq_accesses::.switch_cpus_1.data         2037                       # number of ReadReq accesses(hits+misses)
system.cpu.dcache.ReadReq_accesses::total    181902877                       # number of ReadReq accesses(hits+misses)
system.cpu.dcache.ReadReq_miss_rate::.cpu.data     0.036853                       # miss rate for ReadReq accesses
system.cpu.dcache.ReadReq_miss_rate::.switch_cpus.data     0.108687                       # miss rate for ReadReq accesses
system.cpu.dcache.ReadReq_miss_rate::.switch_cpus_1.data     0.059892                       # miss rate for ReadReq accesses
system.cpu.dcache.ReadReq_miss_rate::total     0.036859                       # miss rate for ReadReq accesses
system.cpu.dcache.ReadReq_avg_miss_latency::.switch_cpus.data 13979.738155                       # average ReadReq miss latency
system.cpu.dcache.ReadReq_avg_miss_latency::.switch_cpus_1.data  6127.049180                       # average ReadReq miss latency
system.cpu.dcache.ReadReq_avg_miss_latency::total     3.455911                       # average ReadReq miss latency
system.cpu.dcache.ReadReq_mshr_hits::.switch_cpus_1.data           69                       # number of ReadReq MSHR hits
system.cpu.dcache.ReadReq_mshr_hits::total           69                       # number of ReadReq MSHR hits
system.cpu.dcache.ReadReq_mshr_misses::.switch_cpus.data         1604                       # number of ReadReq MSHR misses
system.cpu.dcache.ReadReq_mshr_misses::.switch_cpus_1.data           53                       # number of ReadReq MSHR misses
system.cpu.dcache.ReadReq_mshr_misses::total         1657                       # number of ReadReq MSHR misses
system.cpu.dcache.ReadReq_mshr_miss_latency::.switch_cpus.data     21621500                       # number of ReadReq MSHR miss cycles
system.cpu.dcache.ReadReq_mshr_miss_latency::.switch_cpus_1.data       363000                       # number of ReadReq MSHR miss cycles
system.cpu.dcache.ReadReq_mshr_miss_latency::total     21984500                       # number of ReadReq MSHR miss cycles
system.cpu.dcache.ReadReq_mshr_miss_rate::.switch_cpus.data     0.108687                       # mshr miss rate for ReadReq accesses
system.cpu.dcache.ReadReq_mshr_miss_rate::.switch_cpus_1.data     0.026019                       # mshr miss rate for ReadReq accesses
system.cpu.dcache.ReadReq_mshr_miss_rate::total     0.000009                       # mshr miss rate for ReadReq accesses
system.cpu.dcache.ReadReq_avg_mshr_miss_latency::.switch_cpus.data 13479.738155                       # average ReadReq mshr miss latency
system.cpu.dcache.ReadReq_avg_mshr_miss_latency::.switch_cpus_1.data  6849.056604                       # average ReadReq mshr miss latency
system.cpu.dcache.ReadReq_avg_mshr_miss_latency::total 13267.652384                       # average ReadReq mshr miss latency
system.cpu.dcache.WriteReq_hits::.cpu.data     42311518                       # number of WriteReq hits
system.cpu.dcache.WriteReq_hits::.switch_cpus.data         1815                       # number of WriteReq hits
system.cpu.dcache.WriteReq_hits::.switch_cpus_1.data           63                       # number of WriteReq hits
system.cpu.dcache.WriteReq_hits::total       42313396                       # number of WriteReq hits
system.cpu.dcache.WriteReq_misses::.cpu.data       853377                       # number of WriteReq misses
system.cpu.dcache.WriteReq_misses::.switch_cpus.data          144                       # number of WriteReq misses
system.cpu.dcache.WriteReq_misses::total       853521                       # number of WriteReq misses
system.cpu.dcache.WriteReq_miss_latency::.switch_cpus.data      1008000                       # number of WriteReq miss cycles
system.cpu.dcache.WriteReq_miss_latency::total      1008000                       # number of WriteReq miss cycles
system.cpu.dcache.WriteReq_accesses::.cpu.data     43164895                       # number of WriteReq accesses(hits+misses)
system.cpu.dcache.WriteReq_accesses::.switch_cpus.data         1959                       # number of WriteReq accesses(hits+misses)
system.cpu.dcache.WriteReq_accesses::.switch_cpus_1.data           63                       # number of WriteReq accesses(hits+misses)
system.cpu.dcache.WriteReq_accesses::total     43166917                       # number of WriteReq accesses(hits+misses)
system.cpu.dcache.WriteReq_miss_rate::.cpu.data     0.019770                       # miss rate for WriteReq accesses
system.cpu.dcache.WriteReq_miss_rate::.switch_cpus.data     0.073507                       # miss rate for WriteReq accesses
system.cpu.dcache.WriteReq_miss_rate::total     0.019773                       # miss rate for WriteReq accesses
system.cpu.dcache.WriteReq_avg_miss_latency::.switch_cpus.data         7000                       # average WriteReq miss latency
system.cpu.dcache.WriteReq_avg_miss_latency::total     1.180990                       # average WriteReq miss latency
system.cpu.dcache.WriteReq_mshr_misses::.switch_cpus.data          144                       # number of WriteReq MSHR misses
system.cpu.dcache.WriteReq_mshr_misses::total          144                       # number of WriteReq MSHR misses
system.cpu.dcache.WriteReq_mshr_miss_latency::.switch_cpus.data       936000                       # number of WriteReq MSHR miss cycles
system.cpu.dcache.WriteReq_mshr_miss_latency::total       936000                       # number of WriteReq MSHR miss cycles
system.cpu.dcache.WriteReq_mshr_miss_rate::.switch_cpus.data     0.073507                       # mshr miss rate for WriteReq accesses
system.cpu.dcache.WriteReq_mshr_miss_rate::total     0.000003                       # mshr miss rate for WriteReq accesses
system.cpu.dcache.WriteReq_avg_mshr_miss_latency::.switch_cpus.data         6500                       # average WriteReq mshr miss latency
system.cpu.dcache.WriteReq_avg_mshr_miss_latency::total         6500                       # average WriteReq mshr miss latency
system.cpu.dcache.SoftPFReq_misses::.cpu.data       144428                       # number of SoftPFReq misses
system.cpu.dcache.SoftPFReq_misses::total       144428                       # number of SoftPFReq misses
system.cpu.dcache.SoftPFReq_accesses::.cpu.data       144428                       # number of SoftPFReq accesses(hits+misses)
system.cpu.dcache.SoftPFReq_accesses::total       144428                       # number of SoftPFReq accesses(hits+misses)
system.cpu.dcache.SoftPFReq_miss_rate::.cpu.data            1                       # miss rate for SoftPFReq accesses
system.cpu.dcache.SoftPFReq_miss_rate::total            1                       # miss rate for SoftPFReq accesses
system.cpu.dcache.power_state.pwrStateResidencyTicks::UNDEFINED 635753441500                       # Cumulative time (in ticks) in various power states
system.cpu.dcache.tags.tagsinuse           511.984541                       # Cycle average of tags in use
system.cpu.dcache.tags.total_refs           225214153                       # Total number of references to valid blocks.
system.cpu.dcache.tags.sampled_refs           7702496                       # Sample count of references to valid blocks.
system.cpu.dcache.tags.avg_refs             29.239113                       # Average number of references to valid blocks.
system.cpu.dcache.tags.warmup_cycle              1500                       # Cycle when the warmup percentage was hit.
system.cpu.dcache.tags.occ_blocks::.cpu.data   511.964230                       # Average occupied blocks per requestor
system.cpu.dcache.tags.occ_blocks::.switch_cpus.data     0.020210                       # Average occupied blocks per requestor
system.cpu.dcache.tags.occ_blocks::.switch_cpus_1.data     0.000100                       # Average occupied blocks per requestor
system.cpu.dcache.tags.occ_percent::.cpu.data     0.999930                       # Average percentage of cache occupancy
system.cpu.dcache.tags.occ_percent::.switch_cpus.data     0.000039                       # Average percentage of cache occupancy
system.cpu.dcache.tags.occ_percent::.switch_cpus_1.data     0.000000                       # Average percentage of cache occupancy
system.cpu.dcache.tags.occ_percent::total     0.999970                       # Average percentage of cache occupancy
system.cpu.dcache.tags.occ_task_id_blocks::1024          512                       # Occupied blocks per task id
system.cpu.dcache.tags.age_task_id_blocks_1024::0           47                       # Occupied blocks per task id
system.cpu.dcache.tags.age_task_id_blocks_1024::1          149                       # Occupied blocks per task id
system.cpu.dcache.tags.age_task_id_blocks_1024::2          167                       # Occupied blocks per task id
system.cpu.dcache.tags.age_task_id_blocks_1024::3          146                       # Occupied blocks per task id
system.cpu.dcache.tags.age_task_id_blocks_1024::4            3                       # Occupied blocks per task id
system.cpu.dcache.tags.occ_task_id_percent::1024            1                       # Percentage of cache occupancy per task id
system.cpu.dcache.tags.tag_accesses         908559384                       # Number of tag accesses
system.cpu.dcache.tags.data_accesses        908559384                       # Number of data accesses
system.cpu.dcache.tags.cache_friendly               0                       # Number of cache friendly accesses
system.cpu.dcache.tags.cache_averse         225214153                       # Number of cache averse accesses
system.cpu.dcache.tags.OPT_hits                     0                       # Number of OPT hits
system.cpu.dcache.tags.OPT_misses                   0                       # Number of OPT misses
system.cpu.dcache.tags.OPT_nan              225214222                       # Number of OPT nan
system.cpu.dcache.tags.power_state.pwrStateResidencyTicks::UNDEFINED 635753441500                       # Cumulative time (in ticks) in various power states
system.cpu.power_state.numTransitions               2                       # Number of power state transitions
system.cpu.power_state.pwrStateResidencyTicks::ON 635673070000                       # Cumulative time (in ticks) in various power states
system.cpu.power_state.pwrStateResidencyTicks::OFF     80371500                       # Cumulative time (in ticks) in various power states

---------- End Simulation Statistics   ----------
