
---------- Begin Simulation Statistics ----------
final_tick                               576009024500                       # Number of ticks from beginning of simulation (restored from checkpoints and never reset)
host_inst_rate                                 264723                       # Simulator instruction rate (inst/s)
host_mem_usage                                 821400                       # Number of bytes of host memory used
host_op_rate                                   483588                       # Simulator op (including micro ops) rate (op/s)
host_seconds                                  2304.29                       # Real time elapsed on the host
host_tick_rate                              177112882                       # Simulator tick rate (ticks/s)
sim_freq                                 1000000000000                       # Frequency of simulated ticks
sim_insts                                   610000004                       # Number of instructions simulated
sim_ops                                    1114327964                       # Number of ops (including micro ops) simulated
sim_seconds                                  0.408120                       # Number of seconds simulated
sim_ticks                                408119702500                       # Number of ticks simulated
system.cpu.committedInsts                           0                       # Number of instructions committed
system.cpu.committedOps                             0                       # Number of ops (including micro ops) committed
system.cpu.dtb.rdAccesses                           0                       # TLB accesses on read requests
system.cpu.dtb.rdMisses                             0                       # TLB misses on read requests
system.cpu.dtb.wrAccesses                           0                       # TLB accesses on write requests
system.cpu.dtb.wrMisses                             0                       # TLB misses on write requests
system.cpu.idle_fraction                            0                       # Percentage of idle cycles
system.cpu.itb.rdAccesses                           0                       # TLB accesses on read requests
system.cpu.itb.rdMisses                             0                       # TLB misses on read requests
system.cpu.itb.wrAccesses                           0                       # TLB accesses on write requests
system.cpu.itb.wrMisses                             0                       # TLB misses on write requests
system.cpu.not_idle_fraction                        1                       # Percentage of non-idle cycles
system.cpu.numCycles                                0                       # number of cpu cycles simulated
system.cpu.numWorkItemsCompleted                    0                       # number of work items this cpu completed
system.cpu.numWorkItemsStarted                      0                       # number of work items this cpu started
system.cpu.num_busy_cycles                          0                       # Number of busy cycles
system.cpu.num_conditional_control_insts            0                       # number of instructions that are conditional controls
system.cpu.num_fp_alu_accesses                      0                       # Number of float alu accesses
system.cpu.num_fp_insts                             0                       # number of float instructions
system.cpu.num_fp_register_reads                    0                       # number of times the floating registers were read
system.cpu.num_fp_register_writes                   0                       # number of times the floating registers were written
system.cpu.num_func_calls                           0                       # number of times a function call or return occured
system.cpu.num_idle_cycles                          0                       # Number of idle cycles
system.cpu.num_int_alu_accesses                     0                       # Number of integer alu accesses
system.cpu.num_int_insts                            0                       # number of integer instructions
system.cpu.num_int_register_reads                   0                       # number of times the integer registers were read
system.cpu.num_int_register_writes                  0                       # number of times the integer registers were written
system.cpu.num_load_insts                           0                       # Number of load instructions
system.cpu.num_mem_refs                             0                       # number of memory refs
system.cpu.num_store_insts                          0                       # Number of store instructions
system.cpu.num_vec_alu_accesses                     0                       # Number of vector alu accesses
system.cpu.num_vec_insts                            0                       # number of vector instructions
system.cpu.num_vec_register_reads                   0                       # number of times the vector registers were read
system.cpu.num_vec_register_writes                  0                       # number of times the vector registers were written
system.cpu.op_class::No_OpClass                     0                       # Class of executed instruction
system.cpu.op_class::IntAlu                         0                       # Class of executed instruction
system.cpu.op_class::IntMult                        0                       # Class of executed instruction
system.cpu.op_class::IntDiv                         0                       # Class of executed instruction
system.cpu.op_class::FloatAdd                       0                       # Class of executed instruction
system.cpu.op_class::FloatCmp                       0                       # Class of executed instruction
system.cpu.op_class::FloatCvt                       0                       # Class of executed instruction
system.cpu.op_class::FloatMult                      0                       # Class of executed instruction
system.cpu.op_class::FloatMultAcc                   0                       # Class of executed instruction
system.cpu.op_class::FloatDiv                       0                       # Class of executed instruction
system.cpu.op_class::FloatMisc                      0                       # Class of executed instruction
system.cpu.op_class::FloatSqrt                      0                       # Class of executed instruction
system.cpu.op_class::SimdAdd                        0                       # Class of executed instruction
system.cpu.op_class::SimdAddAcc                     0                       # Class of executed instruction
system.cpu.op_class::SimdAlu                        0                       # Class of executed instruction
system.cpu.op_class::SimdCmp                        0                       # Class of executed instruction
system.cpu.op_class::SimdCvt                        0                       # Class of executed instruction
system.cpu.op_class::SimdMisc                       0                       # Class of executed instruction
system.cpu.op_class::SimdMult                       0                       # Class of executed instruction
system.cpu.op_class::SimdMultAcc                    0                       # Class of executed instruction
system.cpu.op_class::SimdShift                      0                       # Class of executed instruction
system.cpu.op_class::SimdShiftAcc                   0                       # Class of executed instruction
system.cpu.op_class::SimdDiv                        0                       # Class of executed instruction
system.cpu.op_class::SimdSqrt                       0                       # Class of executed instruction
system.cpu.op_class::SimdFloatAdd                   0                       # Class of executed instruction
system.cpu.op_class::SimdFloatAlu                   0                       # Class of executed instruction
system.cpu.op_class::SimdFloatCmp                   0                       # Class of executed instruction
system.cpu.op_class::SimdFloatCvt                   0                       # Class of executed instruction
system.cpu.op_class::SimdFloatDiv                   0                       # Class of executed instruction
system.cpu.op_class::SimdFloatMisc                  0                       # Class of executed instruction
system.cpu.op_class::SimdFloatMult                  0                       # Class of executed instruction
system.cpu.op_class::SimdFloatMultAcc               0                       # Class of executed instruction
system.cpu.op_class::SimdFloatSqrt                  0                       # Class of executed instruction
system.cpu.op_class::SimdReduceAdd                  0                       # Class of executed instruction
system.cpu.op_class::SimdReduceAlu                  0                       # Class of executed instruction
system.cpu.op_class::SimdReduceCmp                  0                       # Class of executed instruction
system.cpu.op_class::SimdFloatReduceAdd             0                       # Class of executed instruction
system.cpu.op_class::SimdFloatReduceCmp             0                       # Class of executed instruction
system.cpu.op_class::SimdAes                        0                       # Class of executed instruction
system.cpu.op_class::SimdAesMix                     0                       # Class of executed instruction
system.cpu.op_class::SimdSha1Hash                   0                       # Class of executed instruction
system.cpu.op_class::SimdSha1Hash2                  0                       # Class of executed instruction
system.cpu.op_class::SimdSha256Hash                 0                       # Class of executed instruction
system.cpu.op_class::SimdSha256Hash2                0                       # Class of executed instruction
system.cpu.op_class::SimdShaSigma2                  0                       # Class of executed instruction
system.cpu.op_class::SimdShaSigma3                  0                       # Class of executed instruction
system.cpu.op_class::SimdPredAlu                    0                       # Class of executed instruction
system.cpu.op_class::MemRead                        0                       # Class of executed instruction
system.cpu.op_class::MemWrite                       0                       # Class of executed instruction
system.cpu.op_class::FloatMemRead                   0                       # Class of executed instruction
system.cpu.op_class::FloatMemWrite                  0                       # Class of executed instruction
system.cpu.op_class::IprAccess                      0                       # Class of executed instruction
system.cpu.op_class::InstPrefetch                   0                       # Class of executed instruction
system.cpu.op_class::total                          0                       # Class of executed instruction
system.cpu.workload.numSyscalls                    10                       # Number of system calls
system.membus.snoop_filter.hit_multi_requests            0                       # Number of requests hitting in the snoop filter with multiple (>1) holders of the requested data.
system.membus.snoop_filter.hit_multi_snoops            0                       # Number of snoops hitting in the snoop filter with multiple (>1) holders of the requested data.
system.membus.snoop_filter.hit_single_requests      4046818                       # Number of requests hitting in the snoop filter with a single holder of the requested data.
system.membus.snoop_filter.hit_single_snoops            0                       # Number of snoops hitting in the snoop filter with a single holder of the requested data.
system.membus.snoop_filter.tot_requests       8093633                       # Total number of requests made to the snoop filter.
system.membus.snoop_filter.tot_snoops               0                       # Total number of snoops made to the snoop filter.
system.switch_cpus.committedInsts                   0                       # Number of instructions committed
system.switch_cpus.committedOps                     0                       # Number of ops (including micro ops) committed
system.switch_cpus.dtb.rdAccesses                   0                       # TLB accesses on read requests
system.switch_cpus.dtb.rdMisses                     0                       # TLB misses on read requests
system.switch_cpus.dtb.wrAccesses                   0                       # TLB accesses on write requests
system.switch_cpus.dtb.wrMisses                     0                       # TLB misses on write requests
system.switch_cpus.idle_fraction                    0                       # Percentage of idle cycles
system.switch_cpus.itb.rdAccesses                   0                       # TLB accesses on read requests
system.switch_cpus.itb.rdMisses                     0                       # TLB misses on read requests
system.switch_cpus.itb.wrAccesses                   0                       # TLB accesses on write requests
system.switch_cpus.itb.wrMisses                     0                       # TLB misses on write requests
system.switch_cpus.not_idle_fraction                1                       # Percentage of non-idle cycles
system.switch_cpus.numCycles                        0                       # number of cpu cycles simulated
system.switch_cpus.numWorkItemsCompleted            0                       # number of work items this cpu completed
system.switch_cpus.numWorkItemsStarted              0                       # number of work items this cpu started
system.switch_cpus.num_busy_cycles                  0                       # Number of busy cycles
system.switch_cpus.num_conditional_control_insts            0                       # number of instructions that are conditional controls
system.switch_cpus.num_fp_alu_accesses              0                       # Number of float alu accesses
system.switch_cpus.num_fp_insts                     0                       # number of float instructions
system.switch_cpus.num_fp_register_reads            0                       # number of times the floating registers were read
system.switch_cpus.num_fp_register_writes            0                       # number of times the floating registers were written
system.switch_cpus.num_func_calls                   0                       # number of times a function call or return occured
system.switch_cpus.num_idle_cycles                  0                       # Number of idle cycles
system.switch_cpus.num_int_alu_accesses             0                       # Number of integer alu accesses
system.switch_cpus.num_int_insts                    0                       # number of integer instructions
system.switch_cpus.num_int_register_reads            0                       # number of times the integer registers were read
system.switch_cpus.num_int_register_writes            0                       # number of times the integer registers were written
system.switch_cpus.num_load_insts                   0                       # Number of load instructions
system.switch_cpus.num_mem_refs                     0                       # number of memory refs
system.switch_cpus.num_store_insts                  0                       # Number of store instructions
system.switch_cpus.num_vec_alu_accesses             0                       # Number of vector alu accesses
system.switch_cpus.num_vec_insts                    0                       # number of vector instructions
system.switch_cpus.num_vec_register_reads            0                       # number of times the vector registers were read
system.switch_cpus.num_vec_register_writes            0                       # number of times the vector registers were written
system.switch_cpus.op_class::No_OpClass             0                       # Class of executed instruction
system.switch_cpus.op_class::IntAlu                 0                       # Class of executed instruction
system.switch_cpus.op_class::IntMult                0                       # Class of executed instruction
system.switch_cpus.op_class::IntDiv                 0                       # Class of executed instruction
system.switch_cpus.op_class::FloatAdd               0                       # Class of executed instruction
system.switch_cpus.op_class::FloatCmp               0                       # Class of executed instruction
system.switch_cpus.op_class::FloatCvt               0                       # Class of executed instruction
system.switch_cpus.op_class::FloatMult              0                       # Class of executed instruction
system.switch_cpus.op_class::FloatMultAcc            0                       # Class of executed instruction
system.switch_cpus.op_class::FloatDiv               0                       # Class of executed instruction
system.switch_cpus.op_class::FloatMisc              0                       # Class of executed instruction
system.switch_cpus.op_class::FloatSqrt              0                       # Class of executed instruction
system.switch_cpus.op_class::SimdAdd                0                       # Class of executed instruction
system.switch_cpus.op_class::SimdAddAcc             0                       # Class of executed instruction
system.switch_cpus.op_class::SimdAlu                0                       # Class of executed instruction
system.switch_cpus.op_class::SimdCmp                0                       # Class of executed instruction
system.switch_cpus.op_class::SimdCvt                0                       # Class of executed instruction
system.switch_cpus.op_class::SimdMisc               0                       # Class of executed instruction
system.switch_cpus.op_class::SimdMult               0                       # Class of executed instruction
system.switch_cpus.op_class::SimdMultAcc            0                       # Class of executed instruction
system.switch_cpus.op_class::SimdShift              0                       # Class of executed instruction
system.switch_cpus.op_class::SimdShiftAcc            0                       # Class of executed instruction
system.switch_cpus.op_class::SimdDiv                0                       # Class of executed instruction
system.switch_cpus.op_class::SimdSqrt               0                       # Class of executed instruction
system.switch_cpus.op_class::SimdFloatAdd            0                       # Class of executed instruction
system.switch_cpus.op_class::SimdFloatAlu            0                       # Class of executed instruction
system.switch_cpus.op_class::SimdFloatCmp            0                       # Class of executed instruction
system.switch_cpus.op_class::SimdFloatCvt            0                       # Class of executed instruction
system.switch_cpus.op_class::SimdFloatDiv            0                       # Class of executed instruction
system.switch_cpus.op_class::SimdFloatMisc            0                       # Class of executed instruction
system.switch_cpus.op_class::SimdFloatMult            0                       # Class of executed instruction
system.switch_cpus.op_class::SimdFloatMultAcc            0                       # Class of executed instruction
system.switch_cpus.op_class::SimdFloatSqrt            0                       # Class of executed instruction
system.switch_cpus.op_class::SimdReduceAdd            0                       # Class of executed instruction
system.switch_cpus.op_class::SimdReduceAlu            0                       # Class of executed instruction
system.switch_cpus.op_class::SimdReduceCmp            0                       # Class of executed instruction
system.switch_cpus.op_class::SimdFloatReduceAdd            0                       # Class of executed instruction
system.switch_cpus.op_class::SimdFloatReduceCmp            0                       # Class of executed instruction
system.switch_cpus.op_class::SimdAes                0                       # Class of executed instruction
system.switch_cpus.op_class::SimdAesMix             0                       # Class of executed instruction
system.switch_cpus.op_class::SimdSha1Hash            0                       # Class of executed instruction
system.switch_cpus.op_class::SimdSha1Hash2            0                       # Class of executed instruction
system.switch_cpus.op_class::SimdSha256Hash            0                       # Class of executed instruction
system.switch_cpus.op_class::SimdSha256Hash2            0                       # Class of executed instruction
system.switch_cpus.op_class::SimdShaSigma2            0                       # Class of executed instruction
system.switch_cpus.op_class::SimdShaSigma3            0                       # Class of executed instruction
system.switch_cpus.op_class::SimdPredAlu            0                       # Class of executed instruction
system.switch_cpus.op_class::MemRead                0                       # Class of executed instruction
system.switch_cpus.op_class::MemWrite               0                       # Class of executed instruction
system.switch_cpus.op_class::FloatMemRead            0                       # Class of executed instruction
system.switch_cpus.op_class::FloatMemWrite            0                       # Class of executed instruction
system.switch_cpus.op_class::IprAccess              0                       # Class of executed instruction
system.switch_cpus.op_class::InstPrefetch            0                       # Class of executed instruction
system.switch_cpus.op_class::total                  0                       # Class of executed instruction
system.switch_cpus_1.branchPred.BTBCorrect            0                       # Number of correct BTB predictions (this stat may not work properly.
system.switch_cpus_1.branchPred.BTBHitPct          nan                       # BTB Hit Percentage
system.switch_cpus_1.branchPred.BTBHits             0                       # Number of BTB hits
system.switch_cpus_1.branchPred.BTBLookups            0                       # Number of BTB lookups
system.switch_cpus_1.branchPred.RASInCorrect           32                       # Number of incorrect RAS predictions.
system.switch_cpus_1.branchPred.condIncorrect        78622                       # Number of conditional branches incorrect
system.switch_cpus_1.branchPred.condPredicted     62224846                       # Number of conditional branches predicted
system.switch_cpus_1.branchPred.indirectHits     35676599                       # Number of indirect target hits.
system.switch_cpus_1.branchPred.indirectLookups     35728355                       # Number of indirect predictor lookups.
system.switch_cpus_1.branchPred.indirectMisses        51756                       # Number of indirect misses.
system.switch_cpus_1.branchPred.lookups      79941262                       # Number of BP lookups
system.switch_cpus_1.branchPred.usedRAS       8821882                       # Number of times the RAS was used to get a target.
system.switch_cpus_1.branchPredindirectMispredicted        10974                       # Number of mispredicted indirect branches.
system.switch_cpus_1.cc_regfile_reads       386115590                       # number of cc regfile reads
system.switch_cpus_1.cc_regfile_writes      261660755                       # number of cc regfile writes
system.switch_cpus_1.commit.amos                    0                       # Number of atomic instructions committed
system.switch_cpus_1.commit.branchMispredicts        78765                       # The number of times a branch was mispredicted
system.switch_cpus_1.commit.branches         78178083                       # Number of branches committed
system.switch_cpus_1.commit.bw_lim_events     92299452                       # number cycles where commit BW limit reached
system.switch_cpus_1.commit.commitNonSpecStalls           19                       # The number of times commit has been forced to stall to communicate backwards
system.switch_cpus_1.commit.commitSquashedInsts     11959536                       # The number of squashed insts skipped by commit
system.switch_cpus_1.commit.committedInsts    500000001                       # Number of instructions committed
system.switch_cpus_1.commit.committedOps    943521549                       # Number of ops (including micro ops) committed
system.switch_cpus_1.commit.committed_per_cycle::samples    814629297                       # Number of insts commited each cycle
system.switch_cpus_1.commit.committed_per_cycle::mean     1.158222                       # Number of insts commited each cycle
system.switch_cpus_1.commit.committed_per_cycle::stdev     2.633714                       # Number of insts commited each cycle
system.switch_cpus_1.commit.committed_per_cycle::underflows            0      0.00%      0.00% # Number of insts commited each cycle
system.switch_cpus_1.commit.committed_per_cycle::0    646921892     79.41%     79.41% # Number of insts commited each cycle
system.switch_cpus_1.commit.committed_per_cycle::1     30575729      3.75%     83.17% # Number of insts commited each cycle
system.switch_cpus_1.commit.committed_per_cycle::2      9536434      1.17%     84.34% # Number of insts commited each cycle
system.switch_cpus_1.commit.committed_per_cycle::3     14827749      1.82%     86.16% # Number of insts commited each cycle
system.switch_cpus_1.commit.committed_per_cycle::4      7531947      0.92%     87.08% # Number of insts commited each cycle
system.switch_cpus_1.commit.committed_per_cycle::5      2825187      0.35%     87.43% # Number of insts commited each cycle
system.switch_cpus_1.commit.committed_per_cycle::6      4035983      0.50%     87.92% # Number of insts commited each cycle
system.switch_cpus_1.commit.committed_per_cycle::7      6074924      0.75%     88.67% # Number of insts commited each cycle
system.switch_cpus_1.commit.committed_per_cycle::8     92299452     11.33%    100.00% # Number of insts commited each cycle
system.switch_cpus_1.commit.committed_per_cycle::overflows            0      0.00%    100.00% # Number of insts commited each cycle
system.switch_cpus_1.commit.committed_per_cycle::min_value            0                       # Number of insts commited each cycle
system.switch_cpus_1.commit.committed_per_cycle::max_value            8                       # Number of insts commited each cycle
system.switch_cpus_1.commit.committed_per_cycle::total    814629297                       # Number of insts commited each cycle
system.switch_cpus_1.commit.fp_insts        206718488                       # Number of committed floating point instructions.
system.switch_cpus_1.commit.function_calls      8681100                       # Number of function calls committed.
system.switch_cpus_1.commit.int_insts       802686027                       # Number of committed integer instructions.
system.switch_cpus_1.commit.loads           155048978                       # Number of loads committed
system.switch_cpus_1.commit.membars                 0                       # Number of memory barriers committed
system.switch_cpus_1.commit.op_class_0::No_OpClass        53833      0.01%      0.01% # Class of committed instruction
system.switch_cpus_1.commit.op_class_0::IntAlu    619265392     65.63%     65.64% # Class of committed instruction
system.switch_cpus_1.commit.op_class_0::IntMult      7277595      0.77%     66.41% # Class of committed instruction
system.switch_cpus_1.commit.op_class_0::IntDiv           15      0.00%     66.41% # Class of committed instruction
system.switch_cpus_1.commit.op_class_0::FloatAdd     25949053      2.75%     69.16% # Class of committed instruction
system.switch_cpus_1.commit.op_class_0::FloatCmp            0      0.00%     69.16% # Class of committed instruction
system.switch_cpus_1.commit.op_class_0::FloatCvt           16      0.00%     69.16% # Class of committed instruction
system.switch_cpus_1.commit.op_class_0::FloatMult            0      0.00%     69.16% # Class of committed instruction
system.switch_cpus_1.commit.op_class_0::FloatMultAcc            0      0.00%     69.16% # Class of committed instruction
system.switch_cpus_1.commit.op_class_0::FloatDiv            0      0.00%     69.16% # Class of committed instruction
system.switch_cpus_1.commit.op_class_0::FloatMisc            0      0.00%     69.16% # Class of committed instruction
system.switch_cpus_1.commit.op_class_0::FloatSqrt            0      0.00%     69.16% # Class of committed instruction
system.switch_cpus_1.commit.op_class_0::SimdAdd          558      0.00%     69.16% # Class of committed instruction
system.switch_cpus_1.commit.op_class_0::SimdAddAcc            0      0.00%     69.16% # Class of committed instruction
system.switch_cpus_1.commit.op_class_0::SimdAlu      6942074      0.74%     69.90% # Class of committed instruction
system.switch_cpus_1.commit.op_class_0::SimdCmp            0      0.00%     69.90% # Class of committed instruction
system.switch_cpus_1.commit.op_class_0::SimdCvt        17618      0.00%     69.90% # Class of committed instruction
system.switch_cpus_1.commit.op_class_0::SimdMisc      8796890      0.93%     70.83% # Class of committed instruction
system.switch_cpus_1.commit.op_class_0::SimdMult            0      0.00%     70.83% # Class of committed instruction
system.switch_cpus_1.commit.op_class_0::SimdMultAcc            0      0.00%     70.83% # Class of committed instruction
system.switch_cpus_1.commit.op_class_0::SimdShift          265      0.00%     70.83% # Class of committed instruction
system.switch_cpus_1.commit.op_class_0::SimdShiftAcc            0      0.00%     70.83% # Class of committed instruction
system.switch_cpus_1.commit.op_class_0::SimdDiv            0      0.00%     70.83% # Class of committed instruction
system.switch_cpus_1.commit.op_class_0::SimdSqrt            0      0.00%     70.83% # Class of committed instruction
system.switch_cpus_1.commit.op_class_0::SimdFloatAdd     31332428      3.32%     74.15% # Class of committed instruction
system.switch_cpus_1.commit.op_class_0::SimdFloatAlu            0      0.00%     74.15% # Class of committed instruction
system.switch_cpus_1.commit.op_class_0::SimdFloatCmp            2      0.00%     74.15% # Class of committed instruction
system.switch_cpus_1.commit.op_class_0::SimdFloatCvt      5366760      0.57%     74.72% # Class of committed instruction
system.switch_cpus_1.commit.op_class_0::SimdFloatDiv      1728000      0.18%     74.90% # Class of committed instruction
system.switch_cpus_1.commit.op_class_0::SimdFloatMisc            0      0.00%     74.90% # Class of committed instruction
system.switch_cpus_1.commit.op_class_0::SimdFloatMult     27922114      2.96%     77.86% # Class of committed instruction
system.switch_cpus_1.commit.op_class_0::SimdFloatMultAcc            0      0.00%     77.86% # Class of committed instruction
system.switch_cpus_1.commit.op_class_0::SimdFloatSqrt        45685      0.00%     77.87% # Class of committed instruction
system.switch_cpus_1.commit.op_class_0::SimdReduceAdd            0      0.00%     77.87% # Class of committed instruction
system.switch_cpus_1.commit.op_class_0::SimdReduceAlu            0      0.00%     77.87% # Class of committed instruction
system.switch_cpus_1.commit.op_class_0::SimdReduceCmp            0      0.00%     77.87% # Class of committed instruction
system.switch_cpus_1.commit.op_class_0::SimdFloatReduceAdd            0      0.00%     77.87% # Class of committed instruction
system.switch_cpus_1.commit.op_class_0::SimdFloatReduceCmp            0      0.00%     77.87% # Class of committed instruction
system.switch_cpus_1.commit.op_class_0::SimdAes            0      0.00%     77.87% # Class of committed instruction
system.switch_cpus_1.commit.op_class_0::SimdAesMix            0      0.00%     77.87% # Class of committed instruction
system.switch_cpus_1.commit.op_class_0::SimdSha1Hash            0      0.00%     77.87% # Class of committed instruction
system.switch_cpus_1.commit.op_class_0::SimdSha1Hash2            0      0.00%     77.87% # Class of committed instruction
system.switch_cpus_1.commit.op_class_0::SimdSha256Hash            0      0.00%     77.87% # Class of committed instruction
system.switch_cpus_1.commit.op_class_0::SimdSha256Hash2            0      0.00%     77.87% # Class of committed instruction
system.switch_cpus_1.commit.op_class_0::SimdShaSigma2            0      0.00%     77.87% # Class of committed instruction
system.switch_cpus_1.commit.op_class_0::SimdShaSigma3            0      0.00%     77.87% # Class of committed instruction
system.switch_cpus_1.commit.op_class_0::SimdPredAlu            0      0.00%     77.87% # Class of committed instruction
system.switch_cpus_1.commit.op_class_0::MemRead    110075833     11.67%     89.53% # Class of committed instruction
system.switch_cpus_1.commit.op_class_0::MemWrite     41603997      4.41%     93.94% # Class of committed instruction
system.switch_cpus_1.commit.op_class_0::FloatMemRead     44973145      4.77%     98.71% # Class of committed instruction
system.switch_cpus_1.commit.op_class_0::FloatMemWrite     12170276      1.29%    100.00% # Class of committed instruction
system.switch_cpus_1.commit.op_class_0::IprAccess            0      0.00%    100.00% # Class of committed instruction
system.switch_cpus_1.commit.op_class_0::InstPrefetch            0      0.00%    100.00% # Class of committed instruction
system.switch_cpus_1.commit.op_class_0::total    943521549                       # Class of committed instruction
system.switch_cpus_1.commit.refs            208823251                       # Number of memory references committed
system.switch_cpus_1.commit.swp_count               0                       # Number of s/w prefetches committed
system.switch_cpus_1.commit.vec_insts               0                       # Number of committed Vector instructions.
system.switch_cpus_1.committedInsts         500000001                       # Number of Instructions Simulated
system.switch_cpus_1.committedOps           943521549                       # Number of Ops (including micro ops) Simulated
system.switch_cpus_1.cpi                     1.632479                       # CPI: Cycles Per Instruction
system.switch_cpus_1.cpi_total               1.632479                       # CPI: Total CPI of All Threads
system.switch_cpus_1.decode.BlockedCycles    671478795                       # Number of cycles decode is blocked
system.switch_cpus_1.decode.DecodedInsts    957452451                       # Number of instructions handled by decode
system.switch_cpus_1.decode.IdleCycles        9492571                       # Number of cycles decode is idle
system.switch_cpus_1.decode.RunCycles       118505474                       # Number of cycles decode is running
system.switch_cpus_1.decode.SquashCycles       129566                       # Number of cycles decode is squashing
system.switch_cpus_1.decode.UnblockCycles     16561276                       # Number of cycles decode is unblocking
system.switch_cpus_1.dtb.rdAccesses         156949855                       # TLB accesses on read requests
system.switch_cpus_1.dtb.rdMisses               10356                       # TLB misses on read requests
system.switch_cpus_1.dtb.wrAccesses          54450076                       # TLB accesses on write requests
system.switch_cpus_1.dtb.wrMisses              418433                       # TLB misses on write requests
system.switch_cpus_1.fetch.Branches          79941262                       # Number of branches that fetch encountered
system.switch_cpus_1.fetch.CacheLines        58437636                       # Number of cache lines fetched
system.switch_cpus_1.fetch.Cycles           815911223                       # Number of cycles fetch has run and was not squashing or blocked
system.switch_cpus_1.fetch.IcacheSquashes         1222                       # Number of outstanding Icache misses that were squashed
system.switch_cpus_1.fetch.IcacheWaitRetryStallCycles          238                       # Number of stall cycles due to full MSHR
system.switch_cpus_1.fetch.Insts            508970741                       # Number of instructions fetch has processed
system.switch_cpus_1.fetch.MiscStallCycles          184                       # Number of cycles fetch has spent waiting on interrupts, or bad addresses, or out of MSHRs
system.switch_cpus_1.fetch.PendingTrapStallCycles         1707                       # Number of stall cycles due to pending traps
system.switch_cpus_1.fetch.SquashCycles        259132                       # Number of cycles fetch has spent squashing
system.switch_cpus_1.fetch.branchRate        0.097938                       # Number of branch fetches per cycle
system.switch_cpus_1.fetch.icacheStallCycles       124779                       # Number of cycles fetch is stalled on an Icache miss
system.switch_cpus_1.fetch.predictedBranches     44498481                       # Number of branches that fetch has predicted taken
system.switch_cpus_1.fetch.rate              0.623556                       # Number of inst fetches per cycle
system.switch_cpus_1.fetch.rateDist::samples    816167697                       # Number of instructions fetched each cycle (Total)
system.switch_cpus_1.fetch.rateDist::mean     1.177378                       # Number of instructions fetched each cycle (Total)
system.switch_cpus_1.fetch.rateDist::stdev     2.642606                       # Number of instructions fetched each cycle (Total)
system.switch_cpus_1.fetch.rateDist::underflows            0      0.00%      0.00% # Number of instructions fetched each cycle (Total)
system.switch_cpus_1.fetch.rateDist::0      661795360     81.09%     81.09% # Number of instructions fetched each cycle (Total)
system.switch_cpus_1.fetch.rateDist::1        6565356      0.80%     81.89% # Number of instructions fetched each cycle (Total)
system.switch_cpus_1.fetch.rateDist::2       12009107      1.47%     83.36% # Number of instructions fetched each cycle (Total)
system.switch_cpus_1.fetch.rateDist::3       11681433      1.43%     84.79% # Number of instructions fetched each cycle (Total)
system.switch_cpus_1.fetch.rateDist::4        9225106      1.13%     85.92% # Number of instructions fetched each cycle (Total)
system.switch_cpus_1.fetch.rateDist::5       10554460      1.29%     87.22% # Number of instructions fetched each cycle (Total)
system.switch_cpus_1.fetch.rateDist::6        9045424      1.11%     88.32% # Number of instructions fetched each cycle (Total)
system.switch_cpus_1.fetch.rateDist::7       10966566      1.34%     89.67% # Number of instructions fetched each cycle (Total)
system.switch_cpus_1.fetch.rateDist::8       84324885     10.33%    100.00% # Number of instructions fetched each cycle (Total)
system.switch_cpus_1.fetch.rateDist::overflows            0      0.00%    100.00% # Number of instructions fetched each cycle (Total)
system.switch_cpus_1.fetch.rateDist::min_value            0                       # Number of instructions fetched each cycle (Total)
system.switch_cpus_1.fetch.rateDist::max_value            8                       # Number of instructions fetched each cycle (Total)
system.switch_cpus_1.fetch.rateDist::total    816167697                       # Number of instructions fetched each cycle (Total)
system.switch_cpus_1.fp_regfile_reads       312114800                       # number of floating regfile reads
system.switch_cpus_1.fp_regfile_writes      181283767                       # number of floating regfile writes
system.switch_cpus_1.idleCycles                 71708                       # Total number of cycles that the CPU has spent unscheduled due to idling
system.switch_cpus_1.iew.branchMispredicts       107586                       # Number of branch mispredicts detected at execute
system.switch_cpus_1.iew.exec_branches       79272076                       # Number of branches executed
system.switch_cpus_1.iew.exec_nop                   0                       # number of nop insts executed
system.switch_cpus_1.iew.exec_rate           1.169431                       # Inst execution rate
system.switch_cpus_1.iew.exec_refs          211402148                       # number of memory reference insts executed
system.switch_cpus_1.iew.exec_stores         54450054                       # Number of stores executed
system.switch_cpus_1.iew.exec_swp                   0                       # number of swp insts executed
system.switch_cpus_1.iew.iewBlockCycles      38269470                       # Number of cycles IEW is blocking
system.switch_cpus_1.iew.iewDispLoadInsts    157083671                       # Number of dispatched load instructions
system.switch_cpus_1.iew.iewDispNonSpecInsts          103                       # Number of dispatched non-speculative instructions
system.switch_cpus_1.iew.iewDispSquashedInsts         1358                       # Number of squashed instructions skipped by dispatch
system.switch_cpus_1.iew.iewDispStoreInsts     54748678                       # Number of dispatched store instructions
system.switch_cpus_1.iew.iewDispatchedInsts    955915172                       # Number of instructions dispatched to IQ
system.switch_cpus_1.iew.iewExecLoadInsts    156952094                       # Number of load instructions executed
system.switch_cpus_1.iew.iewExecSquashedInsts       180697                       # Number of squashed instructions skipped in execute
system.switch_cpus_1.iew.iewExecutedInsts    954535668                       # Number of executed instructions
system.switch_cpus_1.iew.iewIQFullEvents        25270                       # Number of times the IQ has become full, causing a stall
system.switch_cpus_1.iew.iewIdleCycles              0                       # Number of cycles IEW is idle
system.switch_cpus_1.iew.iewLSQFullEvents    199734594                       # Number of times the LSQ has become full, causing a stall
system.switch_cpus_1.iew.iewSquashCycles       129566                       # Number of cycles IEW is squashing
system.switch_cpus_1.iew.iewUnblockCycles    200194201                       # Number of cycles IEW is unblocking
system.switch_cpus_1.iew.lsq.thread0.blockedLoads            0                       # Number of blocked loads due to partial load-store forwarding
system.switch_cpus_1.iew.lsq.thread0.cacheBlocked         3714                       # Number of times an access to memory failed due to the cache being blocked
system.switch_cpus_1.iew.lsq.thread0.forwLoads     17561751                       # Number of loads that had data forwarded from stores
system.switch_cpus_1.iew.lsq.thread0.ignoredResponses           22                       # Number of memory responses ignored because the instruction is squashed
system.switch_cpus_1.iew.lsq.thread0.invAddrLoads            0                       # Number of loads ignored due to an invalid address
system.switch_cpus_1.iew.lsq.thread0.invAddrSwpfs            0                       # Number of software prefetches ignored due to an invalid address
system.switch_cpus_1.iew.lsq.thread0.memOrderViolation          432                       # Number of memory ordering violations
system.switch_cpus_1.iew.lsq.thread0.rescheduledLoads           12                       # Number of loads that were rescheduled
system.switch_cpus_1.iew.lsq.thread0.squashedLoads      2034688                       # Number of loads squashed
system.switch_cpus_1.iew.lsq.thread0.squashedStores       974401                       # Number of stores squashed
system.switch_cpus_1.iew.memOrderViolationEvents          432                       # Number of memory order violations
system.switch_cpus_1.iew.predictedNotTakenIncorrect        25620                       # Number of branches that were predicted not taken incorrectly
system.switch_cpus_1.iew.predictedTakenIncorrect        81966                       # Number of branches that were predicted taken incorrectly
system.switch_cpus_1.iew.wb_consumers      1267784998                       # num instructions consuming a value
system.switch_cpus_1.iew.wb_count           954206355                       # cumulative count of insts written-back
system.switch_cpus_1.iew.wb_fanout           0.593806                       # average fanout of values written-back
system.switch_cpus_1.iew.wb_producers       752818859                       # num instructions producing a value
system.switch_cpus_1.iew.wb_rate             1.169028                       # insts written-back per cycle
system.switch_cpus_1.iew.wb_sent            954453057                       # cumulative count of insts sent to commit
system.switch_cpus_1.int_regfile_reads     1170949005                       # number of integer regfile reads
system.switch_cpus_1.int_regfile_writes     641475746                       # number of integer regfile writes
system.switch_cpus_1.ipc                     0.612565                       # IPC: Instructions Per Cycle
system.switch_cpus_1.ipc_total               0.612565                       # IPC: Total IPC of All Threads
system.switch_cpus_1.iq.FU_type_0::No_OpClass        60016      0.01%      0.01% # Type of FU issued
system.switch_cpus_1.iq.FU_type_0::IntAlu    627446154     65.72%     65.73% # Type of FU issued
system.switch_cpus_1.iq.FU_type_0::IntMult      7313659      0.77%     66.49% # Type of FU issued
system.switch_cpus_1.iq.FU_type_0::IntDiv           17      0.00%     66.49% # Type of FU issued
system.switch_cpus_1.iq.FU_type_0::FloatAdd     26202400      2.74%     69.24% # Type of FU issued
system.switch_cpus_1.iq.FU_type_0::FloatCmp            0      0.00%     69.24% # Type of FU issued
system.switch_cpus_1.iq.FU_type_0::FloatCvt          184      0.00%     69.24% # Type of FU issued
system.switch_cpus_1.iq.FU_type_0::FloatMult            0      0.00%     69.24% # Type of FU issued
system.switch_cpus_1.iq.FU_type_0::FloatMultAcc            0      0.00%     69.24% # Type of FU issued
system.switch_cpus_1.iq.FU_type_0::FloatDiv            0      0.00%     69.24% # Type of FU issued
system.switch_cpus_1.iq.FU_type_0::FloatMisc            0      0.00%     69.24% # Type of FU issued
system.switch_cpus_1.iq.FU_type_0::FloatSqrt            0      0.00%     69.24% # Type of FU issued
system.switch_cpus_1.iq.FU_type_0::SimdAdd          817      0.00%     69.24% # Type of FU issued
system.switch_cpus_1.iq.FU_type_0::SimdAddAcc            0      0.00%     69.24% # Type of FU issued
system.switch_cpus_1.iq.FU_type_0::SimdAlu      6966314      0.73%     69.97% # Type of FU issued
system.switch_cpus_1.iq.FU_type_0::SimdCmp            0      0.00%     69.97% # Type of FU issued
system.switch_cpus_1.iq.FU_type_0::SimdCvt        18662      0.00%     69.97% # Type of FU issued
system.switch_cpus_1.iq.FU_type_0::SimdMisc      8814291      0.92%     70.89% # Type of FU issued
system.switch_cpus_1.iq.FU_type_0::SimdMult            0      0.00%     70.89% # Type of FU issued
system.switch_cpus_1.iq.FU_type_0::SimdMultAcc            0      0.00%     70.89% # Type of FU issued
system.switch_cpus_1.iq.FU_type_0::SimdShift          508      0.00%     70.89% # Type of FU issued
system.switch_cpus_1.iq.FU_type_0::SimdShiftAcc            0      0.00%     70.89% # Type of FU issued
system.switch_cpus_1.iq.FU_type_0::SimdDiv            0      0.00%     70.89% # Type of FU issued
system.switch_cpus_1.iq.FU_type_0::SimdSqrt            0      0.00%     70.89% # Type of FU issued
system.switch_cpus_1.iq.FU_type_0::SimdFloatAdd     31356383      3.28%     74.18% # Type of FU issued
system.switch_cpus_1.iq.FU_type_0::SimdFloatAlu            0      0.00%     74.18% # Type of FU issued
system.switch_cpus_1.iq.FU_type_0::SimdFloatCmp            2      0.00%     74.18% # Type of FU issued
system.switch_cpus_1.iq.FU_type_0::SimdFloatCvt      5366760      0.56%     74.74% # Type of FU issued
system.switch_cpus_1.iq.FU_type_0::SimdFloatDiv      1731376      0.18%     74.92% # Type of FU issued
system.switch_cpus_1.iq.FU_type_0::SimdFloatMisc            0      0.00%     74.92% # Type of FU issued
system.switch_cpus_1.iq.FU_type_0::SimdFloatMult     27936237      2.93%     77.85% # Type of FU issued
system.switch_cpus_1.iq.FU_type_0::SimdFloatMultAcc            0      0.00%     77.85% # Type of FU issued
system.switch_cpus_1.iq.FU_type_0::SimdFloatSqrt        45685      0.00%     77.85% # Type of FU issued
system.switch_cpus_1.iq.FU_type_0::SimdReduceAdd            0      0.00%     77.85% # Type of FU issued
system.switch_cpus_1.iq.FU_type_0::SimdReduceAlu            0      0.00%     77.85% # Type of FU issued
system.switch_cpus_1.iq.FU_type_0::SimdReduceCmp            0      0.00%     77.85% # Type of FU issued
system.switch_cpus_1.iq.FU_type_0::SimdFloatReduceAdd            0      0.00%     77.85% # Type of FU issued
system.switch_cpus_1.iq.FU_type_0::SimdFloatReduceCmp            0      0.00%     77.85% # Type of FU issued
system.switch_cpus_1.iq.FU_type_0::SimdAes            0      0.00%     77.85% # Type of FU issued
system.switch_cpus_1.iq.FU_type_0::SimdAesMix            0      0.00%     77.85% # Type of FU issued
system.switch_cpus_1.iq.FU_type_0::SimdSha1Hash            0      0.00%     77.85% # Type of FU issued
system.switch_cpus_1.iq.FU_type_0::SimdSha1Hash2            0      0.00%     77.85% # Type of FU issued
system.switch_cpus_1.iq.FU_type_0::SimdSha256Hash            0      0.00%     77.85% # Type of FU issued
system.switch_cpus_1.iq.FU_type_0::SimdSha256Hash2            0      0.00%     77.85% # Type of FU issued
system.switch_cpus_1.iq.FU_type_0::SimdShaSigma2            0      0.00%     77.85% # Type of FU issued
system.switch_cpus_1.iq.FU_type_0::SimdShaSigma3            0      0.00%     77.85% # Type of FU issued
system.switch_cpus_1.iq.FU_type_0::SimdPredAlu            0      0.00%     77.85% # Type of FU issued
system.switch_cpus_1.iq.FU_type_0::MemRead    111725290     11.70%     89.55% # Type of FU issued
system.switch_cpus_1.iq.FU_type_0::MemWrite     42115712      4.41%     93.97% # Type of FU issued
system.switch_cpus_1.iq.FU_type_0::FloatMemRead     45274868      4.74%     98.71% # Type of FU issued
system.switch_cpus_1.iq.FU_type_0::FloatMemWrite     12341030      1.29%    100.00% # Type of FU issued
system.switch_cpus_1.iq.FU_type_0::IprAccess            0      0.00%    100.00% # Type of FU issued
system.switch_cpus_1.iq.FU_type_0::InstPrefetch            0      0.00%    100.00% # Type of FU issued
system.switch_cpus_1.iq.FU_type_0::total    954716365                       # Type of FU issued
system.switch_cpus_1.iq.fp_alu_accesses     208500408                       # Number of floating point alu accesses
system.switch_cpus_1.iq.fp_inst_queue_reads    416096264                       # Number of floating instruction queue reads
system.switch_cpus_1.iq.fp_inst_queue_wakeup_accesses    207369342                       # Number of floating instruction queue wakeup accesses
system.switch_cpus_1.iq.fp_inst_queue_writes    209002514                       # Number of floating instruction queue writes
system.switch_cpus_1.iq.fu_busy_cnt          25718257                       # FU busy when requested
system.switch_cpus_1.iq.fu_busy_rate         0.026938                       # FU busy rate (busy events/executed inst)
system.switch_cpus_1.iq.fu_full::No_OpClass            0      0.00%      0.00% # attempts to use FU when none available
system.switch_cpus_1.iq.fu_full::IntAlu      14660190     57.00%     57.00% # attempts to use FU when none available
system.switch_cpus_1.iq.fu_full::IntMult            0      0.00%     57.00% # attempts to use FU when none available
system.switch_cpus_1.iq.fu_full::IntDiv             0      0.00%     57.00% # attempts to use FU when none available
system.switch_cpus_1.iq.fu_full::FloatAdd            0      0.00%     57.00% # attempts to use FU when none available
system.switch_cpus_1.iq.fu_full::FloatCmp            0      0.00%     57.00% # attempts to use FU when none available
system.switch_cpus_1.iq.fu_full::FloatCvt            0      0.00%     57.00% # attempts to use FU when none available
system.switch_cpus_1.iq.fu_full::FloatMult            0      0.00%     57.00% # attempts to use FU when none available
system.switch_cpus_1.iq.fu_full::FloatMultAcc            0      0.00%     57.00% # attempts to use FU when none available
system.switch_cpus_1.iq.fu_full::FloatDiv            0      0.00%     57.00% # attempts to use FU when none available
system.switch_cpus_1.iq.fu_full::FloatMisc            0      0.00%     57.00% # attempts to use FU when none available
system.switch_cpus_1.iq.fu_full::FloatSqrt            0      0.00%     57.00% # attempts to use FU when none available
system.switch_cpus_1.iq.fu_full::SimdAdd            1      0.00%     57.00% # attempts to use FU when none available
system.switch_cpus_1.iq.fu_full::SimdAddAcc            0      0.00%     57.00% # attempts to use FU when none available
system.switch_cpus_1.iq.fu_full::SimdAlu         2897      0.01%     57.01% # attempts to use FU when none available
system.switch_cpus_1.iq.fu_full::SimdCmp            0      0.00%     57.01% # attempts to use FU when none available
system.switch_cpus_1.iq.fu_full::SimdCvt           12      0.00%     57.01% # attempts to use FU when none available
system.switch_cpus_1.iq.fu_full::SimdMisc         2056      0.01%     57.02% # attempts to use FU when none available
system.switch_cpus_1.iq.fu_full::SimdMult            0      0.00%     57.02% # attempts to use FU when none available
system.switch_cpus_1.iq.fu_full::SimdMultAcc            0      0.00%     57.02% # attempts to use FU when none available
system.switch_cpus_1.iq.fu_full::SimdShift            2      0.00%     57.02% # attempts to use FU when none available
system.switch_cpus_1.iq.fu_full::SimdShiftAcc            0      0.00%     57.02% # attempts to use FU when none available
system.switch_cpus_1.iq.fu_full::SimdDiv            0      0.00%     57.02% # attempts to use FU when none available
system.switch_cpus_1.iq.fu_full::SimdSqrt            0      0.00%     57.02% # attempts to use FU when none available
system.switch_cpus_1.iq.fu_full::SimdFloatAdd            0      0.00%     57.02% # attempts to use FU when none available
system.switch_cpus_1.iq.fu_full::SimdFloatAlu            0      0.00%     57.02% # attempts to use FU when none available
system.switch_cpus_1.iq.fu_full::SimdFloatCmp            0      0.00%     57.02% # attempts to use FU when none available
system.switch_cpus_1.iq.fu_full::SimdFloatCvt            0      0.00%     57.02% # attempts to use FU when none available
system.switch_cpus_1.iq.fu_full::SimdFloatDiv            0      0.00%     57.02% # attempts to use FU when none available
system.switch_cpus_1.iq.fu_full::SimdFloatMisc            0      0.00%     57.02% # attempts to use FU when none available
system.switch_cpus_1.iq.fu_full::SimdFloatMult            0      0.00%     57.02% # attempts to use FU when none available
system.switch_cpus_1.iq.fu_full::SimdFloatMultAcc            0      0.00%     57.02% # attempts to use FU when none available
system.switch_cpus_1.iq.fu_full::SimdFloatSqrt            0      0.00%     57.02% # attempts to use FU when none available
system.switch_cpus_1.iq.fu_full::SimdReduceAdd            0      0.00%     57.02% # attempts to use FU when none available
system.switch_cpus_1.iq.fu_full::SimdReduceAlu            0      0.00%     57.02% # attempts to use FU when none available
system.switch_cpus_1.iq.fu_full::SimdReduceCmp            0      0.00%     57.02% # attempts to use FU when none available
system.switch_cpus_1.iq.fu_full::SimdFloatReduceAdd            0      0.00%     57.02% # attempts to use FU when none available
system.switch_cpus_1.iq.fu_full::SimdFloatReduceCmp            0      0.00%     57.02% # attempts to use FU when none available
system.switch_cpus_1.iq.fu_full::SimdAes            0      0.00%     57.02% # attempts to use FU when none available
system.switch_cpus_1.iq.fu_full::SimdAesMix            0      0.00%     57.02% # attempts to use FU when none available
system.switch_cpus_1.iq.fu_full::SimdSha1Hash            0      0.00%     57.02% # attempts to use FU when none available
system.switch_cpus_1.iq.fu_full::SimdSha1Hash2            0      0.00%     57.02% # attempts to use FU when none available
system.switch_cpus_1.iq.fu_full::SimdSha256Hash            0      0.00%     57.02% # attempts to use FU when none available
system.switch_cpus_1.iq.fu_full::SimdSha256Hash2            0      0.00%     57.02% # attempts to use FU when none available
system.switch_cpus_1.iq.fu_full::SimdShaSigma2            0      0.00%     57.02% # attempts to use FU when none available
system.switch_cpus_1.iq.fu_full::SimdShaSigma3            0      0.00%     57.02% # attempts to use FU when none available
system.switch_cpus_1.iq.fu_full::SimdPredAlu            0      0.00%     57.02% # attempts to use FU when none available
system.switch_cpus_1.iq.fu_full::MemRead      7136605     27.75%     84.77% # attempts to use FU when none available
system.switch_cpus_1.iq.fu_full::MemWrite      3031313     11.79%     96.56% # attempts to use FU when none available
system.switch_cpus_1.iq.fu_full::FloatMemRead       644138      2.50%     99.06% # attempts to use FU when none available
system.switch_cpus_1.iq.fu_full::FloatMemWrite       241043      0.94%    100.00% # attempts to use FU when none available
system.switch_cpus_1.iq.fu_full::IprAccess            0      0.00%    100.00% # attempts to use FU when none available
system.switch_cpus_1.iq.fu_full::InstPrefetch            0      0.00%    100.00% # attempts to use FU when none available
system.switch_cpus_1.iq.int_alu_accesses    771874198                       # Number of integer alu accesses
system.switch_cpus_1.iq.int_inst_queue_reads   2335286762                       # Number of integer instruction queue reads
system.switch_cpus_1.iq.int_inst_queue_wakeup_accesses    746837013                       # Number of integer instruction queue wakeup accesses
system.switch_cpus_1.iq.int_inst_queue_writes    759306637                       # Number of integer instruction queue writes
system.switch_cpus_1.iq.iqInstsAdded        955914919                       # Number of instructions added to the IQ (excludes non-spec)
system.switch_cpus_1.iq.iqInstsIssued       954716365                       # Number of instructions issued
system.switch_cpus_1.iq.iqNonSpecInstsAdded          253                       # Number of non-speculative instructions added to the IQ
system.switch_cpus_1.iq.iqSquashedInstsExamined     12393583                       # Number of squashed instructions iterated over during squash; mainly for profiling
system.switch_cpus_1.iq.iqSquashedInstsIssued        64342                       # Number of squashed instructions issued
system.switch_cpus_1.iq.iqSquashedNonSpecRemoved          234                       # Number of squashed non-spec instructions that were removed
system.switch_cpus_1.iq.iqSquashedOperandsExamined      4824252                       # Number of squashed operands that are examined and possibly removed from graph
system.switch_cpus_1.iq.issued_per_cycle::samples    816167697                       # Number of insts issued each cycle
system.switch_cpus_1.iq.issued_per_cycle::mean     1.169755                       # Number of insts issued each cycle
system.switch_cpus_1.iq.issued_per_cycle::stdev     2.448427                       # Number of insts issued each cycle
system.switch_cpus_1.iq.issued_per_cycle::underflows            0      0.00%      0.00% # Number of insts issued each cycle
system.switch_cpus_1.iq.issued_per_cycle::0    643214077     78.81%     78.81% # Number of insts issued each cycle
system.switch_cpus_1.iq.issued_per_cycle::1      9903856      1.21%     80.02% # Number of insts issued each cycle
system.switch_cpus_1.iq.issued_per_cycle::2      8494935      1.04%     81.06% # Number of insts issued each cycle
system.switch_cpus_1.iq.issued_per_cycle::3     13611272      1.67%     82.73% # Number of insts issued each cycle
system.switch_cpus_1.iq.issued_per_cycle::4     20046995      2.46%     85.19% # Number of insts issued each cycle
system.switch_cpus_1.iq.issued_per_cycle::5     21254568      2.60%     87.79% # Number of insts issued each cycle
system.switch_cpus_1.iq.issued_per_cycle::6     31536422      3.86%     91.66% # Number of insts issued each cycle
system.switch_cpus_1.iq.issued_per_cycle::7     33535105      4.11%     95.76% # Number of insts issued each cycle
system.switch_cpus_1.iq.issued_per_cycle::8     34570467      4.24%    100.00% # Number of insts issued each cycle
system.switch_cpus_1.iq.issued_per_cycle::overflows            0      0.00%    100.00% # Number of insts issued each cycle
system.switch_cpus_1.iq.issued_per_cycle::min_value            0                       # Number of insts issued each cycle
system.switch_cpus_1.iq.issued_per_cycle::max_value            8                       # Number of insts issued each cycle
system.switch_cpus_1.iq.issued_per_cycle::total    816167697                       # Number of insts issued each cycle
system.switch_cpus_1.iq.rate                 1.169652                       # Inst issue rate
system.switch_cpus_1.iq.vec_alu_accesses            0                       # Number of vector alu accesses
system.switch_cpus_1.iq.vec_inst_queue_reads            0                       # Number of vector instruction queue reads
system.switch_cpus_1.iq.vec_inst_queue_wakeup_accesses            0                       # Number of vector instruction queue wakeup accesses
system.switch_cpus_1.iq.vec_inst_queue_writes            0                       # Number of vector instruction queue writes
system.switch_cpus_1.itb.rdAccesses                 0                       # TLB accesses on read requests
system.switch_cpus_1.itb.rdMisses                   0                       # TLB misses on read requests
system.switch_cpus_1.itb.wrAccesses          58437850                       # TLB accesses on write requests
system.switch_cpus_1.itb.wrMisses                 311                       # TLB misses on write requests
system.switch_cpus_1.memDep0.conflictingLoads      1753557                       # Number of conflicting loads.
system.switch_cpus_1.memDep0.conflictingStores      1102719                       # Number of conflicting stores.
system.switch_cpus_1.memDep0.insertedLoads    157083671                       # Number of loads inserted to the mem dependence unit.
system.switch_cpus_1.memDep0.insertedStores     54748678                       # Number of stores inserted to the mem dependence unit.
system.switch_cpus_1.misc_regfile_reads     392558452                       # number of misc regfile reads
system.switch_cpus_1.misc_regfile_writes            9                       # number of misc regfile writes
system.switch_cpus_1.numCycles              816239405                       # number of cpu cycles simulated
system.switch_cpus_1.numWorkItemsCompleted            0                       # number of work items this cpu completed
system.switch_cpus_1.numWorkItemsStarted            0                       # number of work items this cpu started
system.switch_cpus_1.rename.BlockCycles     284499784                       # Number of cycles rename is blocking
system.switch_cpus_1.rename.CommittedMaps   1071869321                       # Number of HB maps that are committed
system.switch_cpus_1.rename.IQFullEvents      8937521                       # Number of times rename has blocked due to IQ full
system.switch_cpus_1.rename.IdleCycles       15998721                       # Number of cycles rename is idle
system.switch_cpus_1.rename.LQFullEvents        31533                       # Number of times rename has blocked due to LQ full
system.switch_cpus_1.rename.ROBFullEvents       213178                       # Number of times rename has blocked due to ROB full
system.switch_cpus_1.rename.RenameLookups   2267213417                       # Number of register rename lookups that rename has made
system.switch_cpus_1.rename.RenamedInsts    956476554                       # Number of instructions processed by rename
system.switch_cpus_1.rename.RenamedOperands   1086570548                       # Number of destination operands rename has renamed
system.switch_cpus_1.rename.RunCycles       128094791                       # Number of cycles rename is running
system.switch_cpus_1.rename.SQFullEvents    371863575                       # Number of times rename has blocked due to SQ full
system.switch_cpus_1.rename.SquashCycles       129566                       # Number of cycles rename is squashing
system.switch_cpus_1.rename.UnblockCycles    387444446                       # Number of cycles rename is unblocking
system.switch_cpus_1.rename.UndoneMaps       14701170                       # Number of HB maps that are undone due to squashing
system.switch_cpus_1.rename.fp_rename_lookups    312641372                       # Number of floating rename lookups
system.switch_cpus_1.rename.int_rename_lookups   1174068934                       # Number of integer rename lookups
system.switch_cpus_1.rename.serializeStallCycles          374                       # count of cycles rename stalled for serializing inst
system.switch_cpus_1.rename.serializingInsts           60                       # count of serializing insts renamed
system.switch_cpus_1.rename.skidInsts        79510558                       # count of insts added to the skid buffer
system.switch_cpus_1.rename.tempSerializingInsts           61                       # count of temporary serializing insts renamed
system.switch_cpus_1.rob.rob_reads         1677155262                       # The number of ROB reads
system.switch_cpus_1.rob.rob_writes        1912502744                       # The number of ROB writes
system.switch_cpus_1.timesIdled                   501                       # Number of times that the entire CPU went into an idle state and unscheduled itself
system.tol2bus.snoop_filter.hit_multi_requests            2                       # Number of requests hitting in the snoop filter with multiple (>1) holders of the requested data.
system.tol2bus.snoop_filter.hit_multi_snoops            0                       # Number of snoops hitting in the snoop filter with multiple (>1) holders of the requested data.
system.tol2bus.snoop_filter.hit_single_requests      4079997                       # Number of requests hitting in the snoop filter with a single holder of the requested data.
system.tol2bus.snoop_filter.hit_single_snoops        54820                       # Number of snoops hitting in the snoop filter with a single holder of the requested data.
system.tol2bus.snoop_filter.tot_requests      8159996                       # Total number of requests made to the snoop filter.
system.tol2bus.snoop_filter.tot_snoops          54820                       # Total number of snoops made to the snoop filter.
system.tol3bus.snoop_filter.hit_multi_requests            0                       # Number of requests hitting in the snoop filter with multiple (>1) holders of the requested data.
system.tol3bus.snoop_filter.hit_multi_snoops            0                       # Number of snoops hitting in the snoop filter with multiple (>1) holders of the requested data.
system.tol3bus.snoop_filter.hit_single_requests      4050593                       # Number of requests hitting in the snoop filter with a single holder of the requested data.
system.tol3bus.snoop_filter.hit_single_snoops         1295                       # Number of snoops hitting in the snoop filter with a single holder of the requested data.
system.tol3bus.snoop_filter.tot_requests      8101183                       # Total number of requests made to the snoop filter.
system.tol3bus.snoop_filter.tot_snoops           1295                       # Total number of snoops made to the snoop filter.
system.membus.trans_dist::ReadResp             637462                       # Transaction distribution
system.membus.trans_dist::WritebackDirty      3416020                       # Transaction distribution
system.membus.trans_dist::CleanEvict           630797                       # Transaction distribution
system.membus.trans_dist::ReadExReq           3409354                       # Transaction distribution
system.membus.trans_dist::ReadExResp          3409354                       # Transaction distribution
system.membus.trans_dist::ReadSharedReq        637462                       # Transaction distribution
system.membus.pkt_count_system.l3.mem_side::system.mem_ctrls.port     12140449                       # Packet count per connected master and slave (bytes)
system.membus.pkt_count_system.l3.mem_side::total     12140449                       # Packet count per connected master and slave (bytes)
system.membus.pkt_count::total               12140449                       # Packet count per connected master and slave (bytes)
system.membus.pkt_size_system.l3.mem_side::system.mem_ctrls.port    477621504                       # Cumulative packet size per connected master and slave (bytes)
system.membus.pkt_size_system.l3.mem_side::total    477621504                       # Cumulative packet size per connected master and slave (bytes)
system.membus.pkt_size::total               477621504                       # Cumulative packet size per connected master and slave (bytes)
system.membus.snoops                                0                       # Total snoops (count)
system.membus.snoopTraffic                          0                       # Total snoop traffic (bytes)
system.membus.snoop_fanout::samples           4046816                       # Request fanout histogram
system.membus.snoop_fanout::mean                    0                       # Request fanout histogram
system.membus.snoop_fanout::stdev                   0                       # Request fanout histogram
system.membus.snoop_fanout::underflows              0      0.00%      0.00% # Request fanout histogram
system.membus.snoop_fanout::0                 4046816    100.00%    100.00% # Request fanout histogram
system.membus.snoop_fanout::1                       0      0.00%    100.00% # Request fanout histogram
system.membus.snoop_fanout::overflows               0      0.00%    100.00% # Request fanout histogram
system.membus.snoop_fanout::min_value               0                       # Request fanout histogram
system.membus.snoop_fanout::max_value               0                       # Request fanout histogram
system.membus.snoop_fanout::total             4046816                       # Request fanout histogram
system.membus.reqLayer2.occupancy         22343931000                       # Layer occupancy (ticks)
system.membus.reqLayer2.utilization               5.5                       # Layer utilization (%)
system.membus.respLayer1.occupancy        21562586750                       # Layer occupancy (ticks)
system.membus.respLayer1.utilization              5.3                       # Layer utilization (%)
system.membus.power_state.pwrStateResidencyTicks::UNDEFINED 576009024500                       # Cumulative time (in ticks) in various power states
system.switch_cpus_1.dtb.walker.power_state.pwrStateResidencyTicks::UNDEFINED 576009024500                       # Cumulative time (in ticks) in various power states
system.switch_cpus_1.itb.walker.power_state.pwrStateResidencyTicks::UNDEFINED 576009024500                       # Cumulative time (in ticks) in various power states
system.switch_cpus_1.power_state.pwrStateResidencyTicks::OFF 576009024500                       # Cumulative time (in ticks) in various power states
system.switch_cpus.dtb.walker.power_state.pwrStateResidencyTicks::UNDEFINED 576009024500                       # Cumulative time (in ticks) in various power states
system.switch_cpus.itb.walker.power_state.pwrStateResidencyTicks::UNDEFINED 576009024500                       # Cumulative time (in ticks) in various power states
system.switch_cpus.power_state.numTransitions            1                       # Number of power state transitions
system.switch_cpus.power_state.pwrStateResidencyTicks::OFF 576009024500                       # Cumulative time (in ticks) in various power states
system.tol2bus.trans_dist::ReadResp            670610                       # Transaction distribution
system.tol2bus.trans_dist::WritebackDirty      6821973                       # Transaction distribution
system.tol2bus.trans_dist::WritebackClean         1657                       # Transaction distribution
system.tol2bus.trans_dist::CleanEvict         1357317                       # Transaction distribution
system.tol2bus.trans_dist::ReadExReq          3409388                       # Transaction distribution
system.tol2bus.trans_dist::ReadExResp         3409387                       # Transaction distribution
system.tol2bus.trans_dist::ReadCleanReq          1657                       # Transaction distribution
system.tol2bus.trans_dist::ReadSharedReq       668954                       # Transaction distribution
system.tol2bus.pkt_count_system.cpu.icache.mem_side::system.l2.cpu_side         4971                       # Packet count per connected master and slave (bytes)
system.tol2bus.pkt_count_system.cpu.dcache.mem_side::system.l2.cpu_side     12235022                       # Packet count per connected master and slave (bytes)
system.tol2bus.pkt_count::total              12239993                       # Packet count per connected master and slave (bytes)
system.tol2bus.pkt_size_system.cpu.icache.mem_side::system.l2.cpu_side       212096                       # Cumulative packet size per connected master and slave (bytes)
system.tol2bus.pkt_size_system.cpu.dcache.mem_side::system.l2.cpu_side    479363072                       # Cumulative packet size per connected master and slave (bytes)
system.tol2bus.pkt_size::total              479575168                       # Cumulative packet size per connected master and slave (bytes)
system.tol2bus.snoops                         4100950                       # Total snoops (count)
system.tol2bus.snoopTraffic                 218256960                       # Total snoop traffic (bytes)
system.tol2bus.snoop_fanout::samples          8180949                       # Request fanout histogram
system.tol2bus.snoop_fanout::mean            0.006701                       # Request fanout histogram
system.tol2bus.snoop_fanout::stdev           0.081586                       # Request fanout histogram
system.tol2bus.snoop_fanout::underflows             0      0.00%      0.00% # Request fanout histogram
system.tol2bus.snoop_fanout::0                8126127     99.33%     99.33% # Request fanout histogram
system.tol2bus.snoop_fanout::1                  54822      0.67%    100.00% # Request fanout histogram
system.tol2bus.snoop_fanout::2                      0      0.00%    100.00% # Request fanout histogram
system.tol2bus.snoop_fanout::3                      0      0.00%    100.00% # Request fanout histogram
system.tol2bus.snoop_fanout::4                      0      0.00%    100.00% # Request fanout histogram
system.tol2bus.snoop_fanout::overflows              0      0.00%    100.00% # Request fanout histogram
system.tol2bus.snoop_fanout::min_value              0                       # Request fanout histogram
system.tol2bus.snoop_fanout::max_value              1                       # Request fanout histogram
system.tol2bus.snoop_fanout::total            8180949                       # Request fanout histogram
system.tol2bus.reqLayer0.occupancy         7493363000                       # Layer occupancy (ticks)
system.tol2bus.reqLayer0.utilization              1.8                       # Layer utilization (%)
system.tol2bus.respLayer1.occupancy        6117510499                       # Layer occupancy (ticks)
system.tol2bus.respLayer1.utilization             1.5                       # Layer utilization (%)
system.tol2bus.respLayer0.occupancy           2485999                       # Layer occupancy (ticks)
system.tol2bus.respLayer0.utilization             0.0                       # Layer utilization (%)
system.tol2bus.power_state.pwrStateResidencyTicks::UNDEFINED 576009024500                       # Cumulative time (in ticks) in various power states
system.voltage_domain.voltage                       1                       # Voltage in Volts
system.clk_domain.clock                          1000                       # Clock period in ticks
system.l2.demand_hits::.switch_cpus_1.inst          700                       # number of demand (read+write) hits
system.l2.demand_hits::.switch_cpus_1.data        28706                       # number of demand (read+write) hits
system.l2.demand_hits::total                    29406                       # number of demand (read+write) hits
system.l2.overall_hits::.switch_cpus_1.inst          700                       # number of overall hits
system.l2.overall_hits::.switch_cpus_1.data        28706                       # number of overall hits
system.l2.overall_hits::total                   29406                       # number of overall hits
system.l2.demand_misses::.switch_cpus_1.inst          957                       # number of demand (read+write) misses
system.l2.demand_misses::.switch_cpus_1.data      4049636                       # number of demand (read+write) misses
system.l2.demand_misses::total                4050593                       # number of demand (read+write) misses
system.l2.overall_misses::.switch_cpus_1.inst          957                       # number of overall misses
system.l2.overall_misses::.switch_cpus_1.data      4049636                       # number of overall misses
system.l2.overall_misses::total               4050593                       # number of overall misses
system.l2.demand_miss_latency::.switch_cpus_1.inst    107015000                       # number of demand (read+write) miss cycles
system.l2.demand_miss_latency::.switch_cpus_1.data 381788646000                       # number of demand (read+write) miss cycles
system.l2.demand_miss_latency::total     381895661000                       # number of demand (read+write) miss cycles
system.l2.overall_miss_latency::.switch_cpus_1.inst    107015000                       # number of overall miss cycles
system.l2.overall_miss_latency::.switch_cpus_1.data 381788646000                       # number of overall miss cycles
system.l2.overall_miss_latency::total    381895661000                       # number of overall miss cycles
system.l2.demand_accesses::.switch_cpus_1.inst         1657                       # number of demand (read+write) accesses
system.l2.demand_accesses::.switch_cpus_1.data      4078342                       # number of demand (read+write) accesses
system.l2.demand_accesses::total              4079999                       # number of demand (read+write) accesses
system.l2.overall_accesses::.switch_cpus_1.inst         1657                       # number of overall (read+write) accesses
system.l2.overall_accesses::.switch_cpus_1.data      4078342                       # number of overall (read+write) accesses
system.l2.overall_accesses::total             4079999                       # number of overall (read+write) accesses
system.l2.demand_miss_rate::.switch_cpus_1.inst     0.577550                       # miss rate for demand accesses
system.l2.demand_miss_rate::.switch_cpus_1.data     0.992961                       # miss rate for demand accesses
system.l2.demand_miss_rate::total            0.992793                       # miss rate for demand accesses
[...]
system.cpu.dcache.overall_miss_latency::.switch_cpus.data  67274888500                       # number of overall miss cycles
system.cpu.dcache.overall_miss_latency::.switch_cpus_1.data 455226326995                       # number of overall miss cycles
system.cpu.dcache.overall_miss_latency::total 522501215495                       # number of overall miss cycles
system.cpu.dcache.demand_accesses::.cpu.data     37648285                       # number of demand (read+write) accesses
system.cpu.dcache.demand_accesses::.switch_cpus.data      3769094                       # number of demand (read+write) accesses
system.cpu.dcache.demand_accesses::.switch_cpus_1.data    193161743                       # number of demand (read+write) accesses
system.cpu.dcache.demand_accesses::total    234579122                       # number of demand (read+write) accesses
system.cpu.dcache.overall_accesses::.cpu.data     37649613                       # number of overall (read+write) accesses
system.cpu.dcache.overall_accesses::.switch_cpus.data      3769094                       # number of overall (read+write) accesses
system.cpu.dcache.overall_accesses::.switch_cpus_1.data    193161743                       # number of overall (read+write) accesses
system.cpu.dcache.overall_accesses::total    234580450                       # number of overall (read+write) accesses
system.cpu.dcache.demand_miss_rate::.cpu.data     0.161913                       # miss rate for demand accesses
system.cpu.dcache.demand_miss_rate::.switch_cpus.data     0.173786                       # miss rate for demand accesses
system.cpu.dcache.demand_miss_rate::.switch_cpus_1.data     0.031688                       # miss rate for demand accesses
system.cpu.dcache.demand_miss_rate::total     0.054871                       # miss rate for demand accesses
system.cpu.dcache.overall_miss_rate::.cpu.data     0.161908                       # miss rate for overall accesses
system.cpu.dcache.overall_miss_rate::.switch_cpus.data     0.173786                       # miss rate for overall accesses
system.cpu.dcache.overall_miss_rate::.switch_cpus_1.data     0.031688                       # miss rate for overall accesses
system.cpu.dcache.overall_miss_rate::total     0.054871                       # miss rate for overall accesses
system.cpu.dcache.demand_avg_miss_latency::.switch_cpus.data 102707.244556                       # average overall miss latency
system.cpu.dcache.demand_avg_miss_latency::.switch_cpus_1.data 74373.494603                       # average overall miss latency
system.cpu.dcache.demand_avg_miss_latency::total 40593.401548                       # average overall miss latency
system.cpu.dcache.overall_avg_miss_latency::.switch_cpus.data 102707.244556                       # average overall miss latency
system.cpu.dcache.overall_avg_miss_latency::.switch_cpus_1.data 74373.494603                       # average overall miss latency
system.cpu.dcache.overall_avg_miss_latency::total 40593.354242                       # average overall miss latency
system.cpu.dcache.blocked_cycles::no_mshrs       134324                       # number of cycles access was blocked
system.cpu.dcache.blocked_cycles::no_targets            0                       # number of cycles access was blocked
system.cpu.dcache.blocked::no_mshrs              3744                       # number of cycles access was blocked
system.cpu.dcache.blocked::no_targets               0                       # number of cycles access was blocked
system.cpu.dcache.avg_blocked_cycles::no_mshrs    35.877137                       # average number of cycles each access was blocked
system.cpu.dcache.avg_blocked_cycles::no_targets          nan                       # average number of cycles each access was blocked
system.cpu.dcache.writebacks::.writebacks     10156436                       # number of writebacks
system.cpu.dcache.writebacks::total          10156436                       # number of writebacks
system.cpu.dcache.demand_mshr_hits::.switch_cpus_1.data      2042472                       # number of demand (read+write) MSHR hits
system.cpu.dcache.demand_mshr_hits::total      2042472                       # number of demand (read+write) MSHR hits
system.cpu.dcache.overall_mshr_hits::.switch_cpus_1.data      2042472                       # number of overall MSHR hits
system.cpu.dcache.overall_mshr_hits::total      2042472                       # number of overall MSHR hits
system.cpu.dcache.demand_mshr_misses::.switch_cpus.data       655016                       # number of demand (read+write) MSHR misses
system.cpu.dcache.demand_mshr_misses::.switch_cpus_1.data      4078342                       # number of demand (read+write) MSHR misses
system.cpu.dcache.demand_mshr_misses::total      4733358                       # number of demand (read+write) MSHR misses
system.cpu.dcache.overall_mshr_misses::.switch_cpus.data       655016                       # number of overall MSHR misses
system.cpu.dcache.overall_mshr_misses::.switch_cpus_1.data      4078342                       # number of overall MSHR misses
system.cpu.dcache.overall_mshr_misses::total      4733358                       # number of overall MSHR misses
system.cpu.dcache.demand_mshr_miss_latency::.switch_cpus.data  66947380500                       # number of demand (read+write) MSHR miss cycles
system.cpu.dcache.demand_mshr_miss_latency::.switch_cpus_1.data 388553116995                       # number of demand (read+write) MSHR miss cycles
system.cpu.dcache.demand_mshr_miss_latency::total 455500497495                       # number of demand (read+write) MSHR miss cycles
system.cpu.dcache.overall_mshr_miss_latency::.switch_cpus.data  66947380500                       # number of overall MSHR miss cycles
system.cpu.dcache.overall_mshr_miss_latency::.switch_cpus_1.data 388553116995                       # number of overall MSHR miss cycles
system.cpu.dcache.overall_mshr_miss_latency::total 455500497495                       # number of overall MSHR miss cycles
system.cpu.dcache.demand_mshr_miss_rate::.switch_cpus.data     0.173786                       # mshr miss rate for demand accesses
system.cpu.dcache.demand_mshr_miss_rate::.switch_cpus_1.data     0.021114                       # mshr miss rate for demand accesses
system.cpu.dcache.demand_mshr_miss_rate::total     0.020178                       # mshr miss rate for demand accesses
system.cpu.dcache.overall_mshr_miss_rate::.switch_cpus.data     0.173786                       # mshr miss rate for overall accesses
system.cpu.dcache.overall_mshr_miss_rate::.switch_cpus_1.data     0.021114                       # mshr miss rate for overall accesses
system.cpu.dcache.overall_mshr_miss_rate::total     0.020178                       # mshr miss rate for overall accesses
system.cpu.dcache.demand_avg_mshr_miss_latency::.switch_cpus.data 102207.244556                       # average overall mshr miss latency
system.cpu.dcache.demand_avg_mshr_miss_latency::.switch_cpus_1.data 95272.323163                       # average overall mshr miss latency
system.cpu.dcache.demand_avg_mshr_miss_latency::total 96231.997980                       # average overall mshr miss latency
system.cpu.dcache.overall_avg_mshr_miss_latency::.switch_cpus.data 102207.244556                       # average overall mshr miss latency
system.cpu.dcache.overall_avg_mshr_miss_latency::.switch_cpus_1.data 95272.323163                       # average overall mshr miss latency
system.cpu.dcache.overall_avg_mshr_miss_latency::total 96231.997980                       # average overall mshr miss latency
system.cpu.dcache.replacements               10828609                       # number of replacements
system.cpu.dcache.ReadReq_hits::.cpu.data     30612527                       # number of ReadReq hits
system.cpu.dcache.ReadReq_hits::.switch_cpus.data      3114078                       # number of ReadReq hits
system.cpu.dcache.ReadReq_hits::.switch_cpus_1.data    136676065                       # number of ReadReq hits
system.cpu.dcache.ReadReq_hits::total       170402670                       # number of ReadReq hits
system.cpu.dcache.ReadReq_misses::.cpu.data        15154                       # number of ReadReq misses
system.cpu.dcache.ReadReq_misses::.switch_cpus_1.data      2711418                       # number of ReadReq misses
system.cpu.dcache.ReadReq_misses::total       2726572                       # number of ReadReq misses
system.cpu.dcache.ReadReq_miss_latency::.switch_cpus_1.data 125933041500                       # number of ReadReq miss cycles
system.cpu.dcache.ReadReq_miss_latency::total 125933041500                       # number of ReadReq miss cycles
system.cpu.dcache.ReadReq_accesses::.cpu.data     30627681                       # number of ReadReq accesses(hits+misses)
system.cpu.dcache.ReadReq_accesses::.switch_cpus.data      3114078                       # number of ReadReq accesses(hits+misses)
system.cpu.dcache.ReadReq_accesses::.switch_cpus_1.data    139387483                       # number of ReadReq accesses(hits+misses)
system.cpu.dcache.ReadReq_accesses::total    173129242                       # number of ReadReq accesses(hits+misses)
system.cpu.dcache.ReadReq_miss_rate::.cpu.data     0.000495                       # miss rate for ReadReq accesses
system.cpu.dcache.ReadReq_miss_rate::.switch_cpus_1.data     0.019452                       # miss rate for ReadReq accesses
system.cpu.dcache.ReadReq_miss_rate::total     0.015749                       # miss rate for ReadReq accesses
system.cpu.dcache.ReadReq_avg_miss_latency::.switch_cpus_1.data 46445.454556                       # average ReadReq miss latency
system.cpu.dcache.ReadReq_avg_miss_latency::total 46187.315611                       # average ReadReq miss latency
system.cpu.dcache.ReadReq_mshr_hits::.switch_cpus_1.data      2042464                       # number of ReadReq MSHR hits
system.cpu.dcache.ReadReq_mshr_hits::total      2042464                       # number of ReadReq MSHR hits
system.cpu.dcache.ReadReq_mshr_misses::.switch_cpus_1.data       668954                       # number of ReadReq MSHR misses
system.cpu.dcache.ReadReq_mshr_misses::total       668954                       # number of ReadReq MSHR misses
system.cpu.dcache.ReadReq_mshr_miss_latency::.switch_cpus_1.data  60964926000                       # number of ReadReq MSHR miss cycles
system.cpu.dcache.ReadReq_mshr_miss_latency::total  60964926000                       # number of ReadReq MSHR miss cycles
system.cpu.dcache.ReadReq_mshr_miss_rate::.switch_cpus_1.data     0.004799                       # mshr miss rate for ReadReq accesses
system.cpu.dcache.ReadReq_mshr_miss_rate::total     0.003864                       # mshr miss rate for ReadReq accesses
system.cpu.dcache.ReadReq_avg_mshr_miss_latency::.switch_cpus_1.data 91134.705824                       # average ReadReq mshr miss latency
system.cpu.dcache.ReadReq_avg_mshr_miss_latency::total 91134.705824                       # average ReadReq mshr miss latency
system.cpu.dcache.WriteReq_hits::.cpu.data       940008                       # number of WriteReq hits
system.cpu.dcache.WriteReq_hits::.switch_cpus_1.data     50364864                       # number of WriteReq hits
system.cpu.dcache.WriteReq_hits::total       51304872                       # number of WriteReq hits
system.cpu.dcache.WriteReq_misses::.cpu.data      6080596                       # number of WriteReq misses
system.cpu.dcache.WriteReq_misses::.switch_cpus.data       655016                       # number of WriteReq misses
system.cpu.dcache.WriteReq_misses::.switch_cpus_1.data      3409396                       # number of WriteReq misses
system.cpu.dcache.WriteReq_misses::total     10145008                       # number of WriteReq misses
system.cpu.dcache.WriteReq_miss_latency::.switch_cpus.data  67274888500                       # number of WriteReq miss cycles
system.cpu.dcache.WriteReq_miss_latency::.switch_cpus_1.data 329293285495                       # number of WriteReq miss cycles
system.cpu.dcache.WriteReq_miss_latency::total 396568173995                       # number of WriteReq miss cycles
system.cpu.dcache.WriteReq_accesses::.cpu.data      7020604                       # number of WriteReq accesses(hits+misses)
system.cpu.dcache.WriteReq_accesses::.switch_cpus.data       655016                       # number of WriteReq accesses(hits+misses)
system.cpu.dcache.WriteReq_accesses::.switch_cpus_1.data     53774260                       # number of WriteReq accesses(hits+misses)
system.cpu.dcache.WriteReq_accesses::total     61449880                       # number of WriteReq accesses(hits+misses)
system.cpu.dcache.WriteReq_miss_rate::.cpu.data     0.866107                       # miss rate for WriteReq accesses
system.cpu.dcache.WriteReq_miss_rate::.switch_cpus.data            1                       # miss rate for WriteReq accesses
system.cpu.dcache.WriteReq_miss_rate::.switch_cpus_1.data     0.063402                       # miss rate for WriteReq accesses
system.cpu.dcache.WriteReq_miss_rate::total     0.165094                       # miss rate for WriteReq accesses
system.cpu.dcache.WriteReq_avg_miss_latency::.switch_cpus.data 102707.244556                       # average WriteReq miss latency
system.cpu.dcache.WriteReq_avg_miss_latency::.switch_cpus_1.data 96584.053450                       # average WriteReq miss latency
system.cpu.dcache.WriteReq_avg_miss_latency::total 39089.981397                       # average WriteReq miss latency
system.cpu.dcache.WriteReq_mshr_hits::.switch_cpus_1.data            8                       # number of WriteReq MSHR hits
system.cpu.dcache.WriteReq_mshr_hits::total            8                       # number of WriteReq MSHR hits
system.cpu.dcache.WriteReq_mshr_misses::.switch_cpus.data       655016                       # number of WriteReq MSHR misses
system.cpu.dcache.WriteReq_mshr_misses::.switch_cpus_1.data      3409388                       # number of WriteReq MSHR misses
system.cpu.dcache.WriteReq_mshr_misses::total      4064404                       # number of WriteReq MSHR misses
system.cpu.dcache.WriteReq_mshr_miss_latency::.switch_cpus.data  66947380500                       # number of WriteReq MSHR miss cycles
system.cpu.dcache.WriteReq_mshr_miss_latency::.switch_cpus_1.data 327588190995                       # number of WriteReq MSHR miss cycles
system.cpu.dcache.WriteReq_mshr_miss_latency::total 394535571495                       # number of WriteReq MSHR miss cycles
system.cpu.dcache.WriteReq_mshr_miss_rate::.switch_cpus.data            1                       # mshr miss rate for WriteReq accesses
system.cpu.dcache.WriteReq_mshr_miss_rate::.switch_cpus_1.data     0.063402                       # mshr miss rate for WriteReq accesses
system.cpu.dcache.WriteReq_mshr_miss_rate::total     0.066142                       # mshr miss rate for WriteReq accesses
system.cpu.dcache.WriteReq_avg_mshr_miss_latency::.switch_cpus.data 102207.244556                       # average WriteReq mshr miss latency
system.cpu.dcache.WriteReq_avg_mshr_miss_latency::.switch_cpus_1.data 96084.162611                       # average WriteReq mshr miss latency
system.cpu.dcache.WriteReq_avg_mshr_miss_latency::total 97070.953452                       # average WriteReq mshr miss latency
system.cpu.dcache.SoftPFReq_hits::.cpu.data         1313                       # number of SoftPFReq hits
system.cpu.dcache.SoftPFReq_hits::total          1313                       # number of SoftPFReq hits
system.cpu.dcache.SoftPFReq_misses::.cpu.data           15                       # number of SoftPFReq misses
system.cpu.dcache.SoftPFReq_misses::total           15                       # number of SoftPFReq misses
system.cpu.dcache.SoftPFReq_accesses::.cpu.data         1328                       # number of SoftPFReq accesses(hits+misses)
system.cpu.dcache.SoftPFReq_accesses::total         1328                       # number of SoftPFReq accesses(hits+misses)
system.cpu.dcache.SoftPFReq_miss_rate::.cpu.data     0.011295                       # miss rate for SoftPFReq accesses
system.cpu.dcache.SoftPFReq_miss_rate::total     0.011295                       # miss rate for SoftPFReq accesses
system.cpu.dcache.power_state.pwrStateResidencyTicks::UNDEFINED 576009024500                       # Cumulative time (in ticks) in various power states
system.cpu.dcache.tags.tagsinuse           511.984291                       # Cycle average of tags in use
system.cpu.dcache.tags.total_refs           232537976                       # Total number of references to valid blocks.
system.cpu.dcache.tags.sampled_refs          10829121                       # Sample count of references to valid blocks.
system.cpu.dcache.tags.avg_refs             21.473393                       # Average number of references to valid blocks.
system.cpu.dcache.tags.warmup_cycle              1500                       # Cycle when the warmup percentage was hit.
system.cpu.dcache.tags.occ_blocks::.cpu.data    82.641186                       # Average occupied blocks per requestor
system.cpu.dcache.tags.occ_blocks::.switch_cpus.data    66.687870                       # Average occupied blocks per requestor
system.cpu.dcache.tags.occ_blocks::.switch_cpus_1.data   362.655236                       # Average occupied blocks per requestor
system.cpu.dcache.tags.occ_percent::.cpu.data     0.161409                       # Average percentage of cache occupancy
system.cpu.dcache.tags.occ_percent::.switch_cpus.data     0.130250                       # Average percentage of cache occupancy
system.cpu.dcache.tags.occ_percent::.switch_cpus_1.data     0.708311                       # Average percentage of cache occupancy
system.cpu.dcache.tags.occ_percent::total     0.999969                       # Average percentage of cache occupancy
system.cpu.dcache.tags.occ_task_id_blocks::1024          512                       # Occupied blocks per task id
system.cpu.dcache.tags.age_task_id_blocks_1024::0          208                       # Occupied blocks per task id
system.cpu.dcache.tags.age_task_id_blocks_1024::1          304                       # Occupied blocks per task id
system.cpu.dcache.tags.occ_task_id_percent::1024            1                       # Percentage of cache occupancy per task id
system.cpu.dcache.tags.tag_accesses         949150921                       # Number of tag accesses
system.cpu.dcache.tags.data_accesses        949150921                       # Number of data accesses
system.cpu.dcache.tags.cache_friendly               0                       # Number of cache friendly accesses
system.cpu.dcache.tags.cache_averse         232537976                       # Number of cache averse accesses
system.cpu.dcache.tags.cache_friendly_victims            0                       # Number of cache friendly victims
system.cpu.dcache.tags.cache_averse_victims     10829121                       # Number of cache averse victims
system.cpu.dcache.tags.OPT_hits                     0                       # Number of OPT hits
system.cpu.dcache.tags.OPT_misses                   0                       # Number of OPT misses
system.cpu.dcache.tags.OPT_nan              234580450                       # Number of OPT nan
system.cpu.dcache.tags.power_state.pwrStateResidencyTicks::UNDEFINED 576009024500                       # Cumulative time (in ticks) in various power states
system.cpu.power_state.numTransitions               2                       # Number of power state transitions
system.cpu.power_state.pwrStateResidencyTicks::ON  92572652000                       # Cumulative time (in ticks) in various power states
system.cpu.power_state.pwrStateResidencyTicks::OFF 483436372500                       # Cumulative time (in ticks) in various power states

---------- End Simulation Statistics   ----------
