
---------- Begin Simulation Statistics ----------
final_tick                                  333066000                       # Number of ticks from beginning of simulation (restored from checkpoints and never reset)
host_inst_rate                                 759639                       # Simulator instruction rate (inst/s)
host_mem_usage                                 732816                       # Number of bytes of host memory used
host_op_rate                                  1408791                       # Simulator op (including micro ops) rate (op/s)
host_seconds                                     0.16                       # Real time elapsed on the host
host_tick_rate                              135315952                       # Simulator tick rate (ticks/s)
sim_freq                                 1000000000000                       # Frequency of simulated ticks
sim_insts                                      119753                       # Number of instructions simulated
sim_ops                                        222179                       # Number of ops (including micro ops) simulated
sim_seconds                                  0.000021                       # Number of seconds simulated
sim_ticks                                    21342250                       # Number of ticks simulated
system.cpu.committedInsts                           0                       # Number of instructions committed
system.cpu.committedOps                             0                       # Number of ops (including micro ops) committed
system.cpu.dtb.rdAccesses                           0                       # TLB accesses on read requests
system.cpu.dtb.rdMisses                             0                       # TLB misses on read requests
system.cpu.dtb.wrAccesses                           0                       # TLB accesses on write requests
system.cpu.dtb.wrMisses                             0                       # TLB misses on write requests
system.cpu.idle_fraction                            0                       # Percentage of idle cycles
system.cpu.itb.rdAccesses                           0                       # TLB accesses on read requests
system.cpu.itb.rdMisses                             0                       # TLB misses on read requests
system.cpu.itb.wrAccesses                           0                       # TLB accesses on write requests
system.cpu.itb.wrMisses                             0                       # TLB misses on write requests
system.cpu.not_idle_fraction                        1                       # Percentage of non-idle cycles
system.cpu.numCycles                                0                       # number of cpu cycles simulated
system.cpu.numWorkItemsCompleted                    0                       # number of work items this cpu completed
system.cpu.numWorkItemsStarted                      0                       # number of work items this cpu started
system.cpu.num_busy_cycles                          0                       # Number of busy cycles
system.cpu.num_conditional_control_insts            0                       # number of instructions that are conditional controls
system.cpu.num_fp_alu_accesses                      0                       # Number of float alu accesses
system.cpu.num_fp_insts                             0                       # number of float instructions
system.cpu.num_fp_register_reads                    0                       # number of times the floating registers were read
system.cpu.num_fp_register_writes                   0                       # number of times the floating registers were written
system.cpu.num_func_calls                           0                       # number of times a function call or return occured
system.cpu.num_idle_cycles                          0                       # Number of idle cycles
system.cpu.num_int_alu_accesses                     0                       # Number of integer alu accesses
system.cpu.num_int_insts                            0                       # number of integer instructions
system.cpu.num_int_register_reads                   0                       # number of times the integer registers were read
system.cpu.num_int_register_writes                  0                       # number of times the integer registers were written
system.cpu.num_load_insts                           0                       # Number of load instructions
system.cpu.num_mem_refs                             0                       # number of memory refs
system.cpu.num_store_insts                          0                       # Number of store instructions
system.cpu.num_vec_alu_accesses                     0                       # Number of vector alu accesses
system.cpu.num_vec_insts                            0                       # number of vector instructions
system.cpu.num_vec_register_reads                   0                       # number of times the vector registers were read
system.cpu.num_vec_register_writes                  0                       # number of times the vector registers were written
system.cpu.op_class::No_OpClass                     0                       # Class of executed instruction
system.cpu.op_class::IntAlu                         0                       # Class of executed instruction
system.cpu.op_class::IntMult                        0                       # Class of executed instruction
system.cpu.op_class::IntDiv                         0                       # Class of executed instruction
system.cpu.op_class::FloatAdd                       0                       # Class of executed instruction
system.cpu.op_class::FloatCmp                       0                       # Class of executed instruction
system.cpu.op_class::FloatCvt                       0                       # Class of executed instruction
system.cpu.op_class::FloatMult                      0                       # Class of executed instruction
system.cpu.op_class::FloatMultAcc                   0                       # Class of executed instruction
system.cpu.op_class::FloatDiv                       0                       # Class of executed instruction
system.cpu.op_class::FloatMisc                      0                       # Class of executed instruction
system.cpu.op_class::FloatSqrt                      0                       # Class of executed instruction
system.cpu.op_class::SimdAdd                        0                       # Class of executed instruction
system.cpu.op_class::SimdAddAcc                     0                       # Class of executed instruction
system.cpu.op_class::SimdAlu                        0                       # Class of executed instruction
system.cpu.op_class::SimdCmp                        0                       # Class of executed instruction
system.cpu.op_class::SimdCvt                        0                       # Class of executed instruction
system.cpu.op_class::SimdMisc                       0                       # Class of executed instruction
system.cpu.op_class::SimdMult                       0                       # Class of executed instruction
system.cpu.op_class::SimdMultAcc                    0                       # Class of executed instruction
system.cpu.op_class::SimdShift                      0                       # Class of executed instruction
system.cpu.op_class::SimdShiftAcc                   0                       # Class of executed instruction
system.cpu.op_class::SimdDiv                        0                       # Class of executed instruction
system.cpu.op_class::SimdSqrt                       0                       # Class of executed instruction
system.cpu.op_class::SimdFloatAdd                   0                       # Class of executed instruction
system.cpu.op_class::SimdFloatAlu                   0                       # Class of executed instruction
system.cpu.op_class::SimdFloatCmp                   0                       # Class of executed instruction
system.cpu.op_class::SimdFloatCvt                   0                       # Class of executed instruction
system.cpu.op_class::SimdFloatDiv                   0                       # Class of executed instruction
system.cpu.op_class::SimdFloatMisc                  0                       # Class of executed instruction
system.cpu.op_class::SimdFloatMult                  0                       # Class of executed instruction
system.cpu.op_class::SimdFloatMultAcc               0                       # Class of executed instruction
system.cpu.op_class::SimdFloatSqrt                  0                       # Class of executed instruction
system.cpu.op_class::SimdReduceAdd                  0                       # Class of executed instruction
system.cpu.op_class::SimdReduceAlu                  0                       # Class of executed instruction
system.cpu.op_class::SimdReduceCmp                  0                       # Class of executed instruction
system.cpu.op_class::SimdFloatReduceAdd             0                       # Class of executed instruction
system.cpu.op_class::SimdFloatReduceCmp             0                       # Class of executed instruction
system.cpu.op_class::SimdAes                        0                       # Class of executed instruction
system.cpu.op_class::SimdAesMix                     0                       # Class of executed instruction
system.cpu.op_class::SimdSha1Hash                   0                       # Class of executed instruction
system.cpu.op_class::SimdSha1Hash2                  0                       # Class of executed instruction
system.cpu.op_class::SimdSha256Hash                 0                       # Class of executed instruction
system.cpu.op_class::SimdSha256Hash2                0                       # Class of executed instruction
system.cpu.op_class::SimdShaSigma2                  0                       # Class of executed instruction
system.cpu.op_class::SimdShaSigma3                  0                       # Class of executed instruction
system.cpu.op_class::SimdPredAlu                    0                       # Class of executed instruction
system.cpu.op_class::MemRead                        0                       # Class of executed instruction
system.cpu.op_class::MemWrite                       0                       # Class of executed instruction
system.cpu.op_class::FloatMemRead                   0                       # Class of executed instruction
system.cpu.op_class::FloatMemWrite                  0                       # Class of executed instruction
system.cpu.op_class::IprAccess                      0                       # Class of executed instruction
system.cpu.op_class::InstPrefetch                   0                       # Class of executed instruction
system.cpu.op_class::total                          0                       # Class of executed instruction
system.cpu.workload.numSyscalls                     0                       # Number of system calls
system.membus.snoop_filter.hit_multi_requests            0                       # Number of requests hitting in the snoop filter with multiple (>1) holders of the requested data.
system.membus.snoop_filter.hit_multi_snoops            0                       # Number of snoops hitting in the snoop filter with multiple (>1) holders of the requested data.
system.membus.snoop_filter.hit_single_requests            0                       # Number of requests hitting in the snoop filter with a single holder of the requested data.
system.membus.snoop_filter.hit_single_snoops            0                       # Number of snoops hitting in the snoop filter with a single holder of the requested data.
system.membus.snoop_filter.tot_requests           251                       # Total number of requests made to the snoop filter.
system.membus.snoop_filter.tot_snoops               0                       # Total number of snoops made to the snoop filter.
system.switch_cpus.committedInsts                   0                       # Number of instructions committed
system.switch_cpus.committedOps                     0                       # Number of ops (including micro ops) committed
system.switch_cpus.dtb.rdAccesses                   0                       # TLB accesses on read requests
system.switch_cpus.dtb.rdMisses                     0                       # TLB misses on read requests
system.switch_cpus.dtb.wrAccesses                   0                       # TLB accesses on write requests
system.switch_cpus.dtb.wrMisses                     0                       # TLB misses on write requests
system.switch_cpus.idle_fraction                    0                       # Percentage of idle cycles
system.switch_cpus.itb.rdAccesses                   0                       # TLB accesses on read requests
system.switch_cpus.itb.rdMisses                     0                       # TLB misses on read requests
system.switch_cpus.itb.wrAccesses                   0                       # TLB accesses on write requests
system.switch_cpus.itb.wrMisses                     0                       # TLB misses on write requests
system.switch_cpus.not_idle_fraction                1                       # Percentage of non-idle cycles
system.switch_cpus.numCycles                        0                       # number of cpu cycles simulated
system.switch_cpus.numWorkItemsCompleted            0                       # number of work items this cpu completed
system.switch_cpus.numWorkItemsStarted              0                       # number of work items this cpu started
system.switch_cpus.num_busy_cycles                  0                       # Number of busy cycles
system.switch_cpus.num_conditional_control_insts            0                       # number of instructions that are conditional controls
system.switch_cpus.num_fp_alu_accesses              0                       # Number of float alu accesses
system.switch_cpus.num_fp_insts                     0                       # number of float instructions
system.switch_cpus.num_fp_register_reads            0                       # number of times the floating registers were read
system.switch_cpus.num_fp_register_writes            0                       # number of times the floating registers were written
system.switch_cpus.num_func_calls                   0                       # number of times a function call or return occured
system.switch_cpus.num_idle_cycles                  0                       # Number of idle cycles
system.switch_cpus.num_int_alu_accesses             0                       # Number of integer alu accesses
system.switch_cpus.num_int_insts                    0                       # number of integer instructions
system.switch_cpus.num_int_register_reads            0                       # number of times the integer registers were read
system.switch_cpus.num_int_register_writes            0                       # number of times the integer registers were written
system.switch_cpus.num_load_insts                   0                       # Number of load instructions
system.switch_cpus.num_mem_refs                     0                       # number of memory refs
system.switch_cpus.num_store_insts                  0                       # Number of store instructions
system.switch_cpus.num_vec_alu_accesses             0                       # Number of vector alu accesses
system.switch_cpus.num_vec_insts                    0                       # number of vector instructions
system.switch_cpus.num_vec_register_reads            0                       # number of times the vector registers were read
system.switch_cpus.num_vec_register_writes            0                       # number of times the vector registers were written
system.switch_cpus.op_class::No_OpClass             0                       # Class of executed instruction
system.switch_cpus.op_class::IntAlu                 0                       # Class of executed instruction
system.switch_cpus.op_class::IntMult                0                       # Class of executed instruction
system.switch_cpus.op_class::IntDiv                 0                       # Class of executed instruction
system.switch_cpus.op_class::FloatAdd               0                       # Class of executed instruction
system.switch_cpus.op_class::FloatCmp               0                       # Class of executed instruction
system.switch_cpus.op_class::FloatCvt               0                       # Class of executed instruction
system.switch_cpus.op_class::FloatMult              0                       # Class of executed instruction
system.switch_cpus.op_class::FloatMultAcc            0                       # Class of executed instruction
system.switch_cpus.op_class::FloatDiv               0                       # Class of executed instruction
system.switch_cpus.op_class::FloatMisc              0                       # Class of executed instruction
system.switch_cpus.op_class::FloatSqrt              0                       # Class of executed instruction
system.switch_cpus.op_class::SimdAdd                0                       # Class of executed instruction
system.switch_cpus.op_class::SimdAddAcc             0                       # Class of executed instruction
system.switch_cpus.op_class::SimdAlu                0                       # Class of executed instruction
system.switch_cpus.op_class::SimdCmp                0                       # Class of executed instruction
system.switch_cpus.op_class::SimdCvt                0                       # Class of executed instruction
system.switch_cpus.op_class::SimdMisc               0                       # Class of executed instruction
system.switch_cpus.op_class::SimdMult               0                       # Class of executed instruction
system.switch_cpus.op_class::SimdMultAcc            0                       # Class of executed instruction
system.switch_cpus.op_class::SimdShift              0                       # Class of executed instruction
system.switch_cpus.op_class::SimdShiftAcc            0                       # Class of executed instruction
system.switch_cpus.op_class::SimdDiv                0                       # Class of executed instruction
system.switch_cpus.op_class::SimdSqrt               0                       # Class of executed instruction
system.switch_cpus.op_class::SimdFloatAdd            0                       # Class of executed instruction
system.switch_cpus.op_class::SimdFloatAlu            0                       # Class of executed instruction
system.switch_cpus.op_class::SimdFloatCmp            0                       # Class of executed instruction
system.switch_cpus.op_class::SimdFloatCvt            0                       # Class of executed instruction
system.switch_cpus.op_class::SimdFloatDiv            0                       # Class of executed instruction
system.switch_cpus.op_class::SimdFloatMisc            0                       # Class of executed instruction
system.switch_cpus.op_class::SimdFloatMult            0                       # Class of executed instruction
system.switch_cpus.op_class::SimdFloatMultAcc            0                       # Class of executed instruction
system.switch_cpus.op_class::SimdFloatSqrt            0                       # Class of executed instruction
system.switch_cpus.op_class::SimdReduceAdd            0                       # Class of executed instruction
system.switch_cpus.op_class::SimdReduceAlu            0                       # Class of executed instruction
system.switch_cpus.op_class::SimdReduceCmp            0                       # Class of executed instruction
system.switch_cpus.op_class::SimdFloatReduceAdd            0                       # Class of executed instruction
system.switch_cpus.op_class::SimdFloatReduceCmp            0                       # Class of executed instruction
system.switch_cpus.op_class::SimdAes                0                       # Class of executed instruction
system.switch_cpus.op_class::SimdAesMix             0                       # Class of executed instruction
system.switch_cpus.op_class::SimdSha1Hash            0                       # Class of executed instruction
system.switch_cpus.op_class::SimdSha1Hash2            0                       # Class of executed instruction
system.switch_cpus.op_class::SimdSha256Hash            0                       # Class of executed instruction
system.switch_cpus.op_class::SimdSha256Hash2            0                       # Class of executed instruction
system.switch_cpus.op_class::SimdShaSigma2            0                       # Class of executed instruction
system.switch_cpus.op_class::SimdShaSigma3            0                       # Class of executed instruction
system.switch_cpus.op_class::SimdPredAlu            0                       # Class of executed instruction
system.switch_cpus.op_class::MemRead                0                       # Class of executed instruction
system.switch_cpus.op_class::MemWrite               0                       # Class of executed instruction
system.switch_cpus.op_class::FloatMemRead            0                       # Class of executed instruction
system.switch_cpus.op_class::FloatMemWrite            0                       # Class of executed instruction
system.switch_cpus.op_class::IprAccess              0                       # Class of executed instruction
system.switch_cpus.op_class::InstPrefetch            0                       # Class of executed instruction
system.switch_cpus.op_class::total                  0                       # Class of executed instruction
system.switch_cpus_1.branchPred.BTBCorrect            0                       # Number of correct BTB predictions (this stat may not work properly.
system.switch_cpus_1.branchPred.BTBHitPct          nan                       # BTB Hit Percentage
system.switch_cpus_1.branchPred.BTBHits             0                       # Number of BTB hits
system.switch_cpus_1.branchPred.BTBLookups            0                       # Number of BTB lookups
system.switch_cpus_1.branchPred.RASInCorrect            2                       # Number of incorrect RAS predictions.
system.switch_cpus_1.branchPred.condIncorrect         1000                       # Number of conditional branches incorrect
system.switch_cpus_1.branchPred.condPredicted        14256                       # Number of conditional branches predicted
system.switch_cpus_1.branchPred.indirectHits         4197                       # Number of indirect target hits.
system.switch_cpus_1.branchPred.indirectLookups         6289                       # Number of indirect predictor lookups.
system.switch_cpus_1.branchPred.indirectMisses         2092                       # Number of indirect misses.
system.switch_cpus_1.branchPred.lookups         14744                       # Number of BP lookups
system.switch_cpus_1.branchPred.usedRAS           185                       # Number of times the RAS was used to get a target.
system.switch_cpus_1.branchPredindirectMispredicted          227                       # Number of mispredicted indirect branches.
system.switch_cpus_1.cc_regfile_reads           31383                       # number of cc regfile reads
system.switch_cpus_1.cc_regfile_writes          21427                       # number of cc regfile writes
system.switch_cpus_1.commit.amos                    0                       # Number of atomic instructions committed
system.switch_cpus_1.commit.branchMispredicts         1012                       # The number of times a branch was mispredicted
system.switch_cpus_1.commit.branches             3639                       # Number of branches committed
system.switch_cpus_1.commit.bw_lim_events         1718                       # number cycles where commit BW limit reached
system.switch_cpus_1.commit.commitNonSpecStalls            9                       # The number of times commit has been forced to stall to communicate backwards
system.switch_cpus_1.commit.commitSquashedInsts        49114                       # The number of squashed insts skipped by commit
system.switch_cpus_1.commit.committedInsts        15384                       # Number of instructions committed
system.switch_cpus_1.commit.committedOps        28092                       # Number of ops (including micro ops) committed
system.switch_cpus_1.commit.committed_per_cycle::samples        33888                       # Number of insts commited each cycle
system.switch_cpus_1.commit.committed_per_cycle::mean     0.828966                       # Number of insts commited each cycle
system.switch_cpus_1.commit.committed_per_cycle::stdev     1.994139                       # Number of insts commited each cycle
system.switch_cpus_1.commit.committed_per_cycle::underflows            0      0.00%      0.00% # Number of insts commited each cycle
system.switch_cpus_1.commit.committed_per_cycle::0        26475     78.12%     78.12% # Number of insts commited each cycle
system.switch_cpus_1.commit.committed_per_cycle::1         1967      5.80%     83.93% # Number of insts commited each cycle
system.switch_cpus_1.commit.committed_per_cycle::2          849      2.51%     86.43% # Number of insts commited each cycle
system.switch_cpus_1.commit.committed_per_cycle::3         1648      4.86%     91.30% # Number of insts commited each cycle
system.switch_cpus_1.commit.committed_per_cycle::4          765      2.26%     93.56% # Number of insts commited each cycle
system.switch_cpus_1.commit.committed_per_cycle::5          200      0.59%     94.15% # Number of insts commited each cycle
system.switch_cpus_1.commit.committed_per_cycle::6          183      0.54%     94.69% # Number of insts commited each cycle
system.switch_cpus_1.commit.committed_per_cycle::7           83      0.24%     94.93% # Number of insts commited each cycle
system.switch_cpus_1.commit.committed_per_cycle::8         1718      5.07%    100.00% # Number of insts commited each cycle
system.switch_cpus_1.commit.committed_per_cycle::overflows            0      0.00%    100.00% # Number of insts commited each cycle
system.switch_cpus_1.commit.committed_per_cycle::min_value            0                       # Number of insts commited each cycle
system.switch_cpus_1.commit.committed_per_cycle::max_value            8                       # Number of insts commited each cycle
system.switch_cpus_1.commit.committed_per_cycle::total        33888                       # Number of insts commited each cycle
system.switch_cpus_1.commit.fp_insts              203                       # Number of committed floating point instructions.
system.switch_cpus_1.commit.function_calls           13                       # Number of function calls committed.
system.switch_cpus_1.commit.int_insts           27962                       # Number of committed integer instructions.
system.switch_cpus_1.commit.loads                3805                       # Number of loads committed
system.switch_cpus_1.commit.membars                 0                       # Number of memory barriers committed
system.switch_cpus_1.commit.op_class_0::No_OpClass           35      0.12%      0.12% # Class of committed instruction
system.switch_cpus_1.commit.op_class_0::IntAlu        24026     85.53%     85.65% # Class of committed instruction
system.switch_cpus_1.commit.op_class_0::IntMult            0      0.00%     85.65% # Class of committed instruction
system.switch_cpus_1.commit.op_class_0::IntDiv           15      0.05%     85.70% # Class of committed instruction
system.switch_cpus_1.commit.op_class_0::FloatAdd           11      0.04%     85.74% # Class of committed instruction
system.switch_cpus_1.commit.op_class_0::FloatCmp            0      0.00%     85.74% # Class of committed instruction
system.switch_cpus_1.commit.op_class_0::FloatCvt            0      0.00%     85.74% # Class of committed instruction
system.switch_cpus_1.commit.op_class_0::FloatMult            0      0.00%     85.74% # Class of committed instruction
system.switch_cpus_1.commit.op_class_0::FloatMultAcc            0      0.00%     85.74% # Class of committed instruction
system.switch_cpus_1.commit.op_class_0::FloatDiv            0      0.00%     85.74% # Class of committed instruction
system.switch_cpus_1.commit.op_class_0::FloatMisc            0      0.00%     85.74% # Class of committed instruction
system.switch_cpus_1.commit.op_class_0::FloatSqrt            0      0.00%     85.74% # Class of committed instruction
system.switch_cpus_1.commit.op_class_0::SimdAdd           20      0.07%     85.81% # Class of committed instruction
system.switch_cpus_1.commit.op_class_0::SimdAddAcc            0      0.00%     85.81% # Class of committed instruction
system.switch_cpus_1.commit.op_class_0::SimdAlu           25      0.09%     85.90% # Class of committed instruction
system.switch_cpus_1.commit.op_class_0::SimdCmp            0      0.00%     85.90% # Class of committed instruction
system.switch_cpus_1.commit.op_class_0::SimdCvt           40      0.14%     86.05% # Class of committed instruction
system.switch_cpus_1.commit.op_class_0::SimdMisc           20      0.07%     86.12% # Class of committed instruction
system.switch_cpus_1.commit.op_class_0::SimdMult            0      0.00%     86.12% # Class of committed instruction
system.switch_cpus_1.commit.op_class_0::SimdMultAcc            0      0.00%     86.12% # Class of committed instruction
system.switch_cpus_1.commit.op_class_0::SimdShift            5      0.02%     86.13% # Class of committed instruction
system.switch_cpus_1.commit.op_class_0::SimdShiftAcc            0      0.00%     86.13% # Class of committed instruction
system.switch_cpus_1.commit.op_class_0::SimdDiv            0      0.00%     86.13% # Class of committed instruction
system.switch_cpus_1.commit.op_class_0::SimdSqrt            0      0.00%     86.13% # Class of committed instruction
system.switch_cpus_1.commit.op_class_0::SimdFloatAdd            0      0.00%     86.13% # Class of committed instruction
system.switch_cpus_1.commit.op_class_0::SimdFloatAlu            0      0.00%     86.13% # Class of committed instruction
system.switch_cpus_1.commit.op_class_0::SimdFloatCmp            0      0.00%     86.13% # Class of committed instruction
system.switch_cpus_1.commit.op_class_0::SimdFloatCvt            0      0.00%     86.13% # Class of committed instruction
system.switch_cpus_1.commit.op_class_0::SimdFloatDiv            0      0.00%     86.13% # Class of committed instruction
system.switch_cpus_1.commit.op_class_0::SimdFloatMisc            0      0.00%     86.13% # Class of committed instruction
system.switch_cpus_1.commit.op_class_0::SimdFloatMult            0      0.00%     86.13% # Class of committed instruction
system.switch_cpus_1.commit.op_class_0::SimdFloatMultAcc            0      0.00%     86.13% # Class of committed instruction
system.switch_cpus_1.commit.op_class_0::SimdFloatSqrt            0      0.00%     86.13% # Class of committed instruction
system.switch_cpus_1.commit.op_class_0::SimdReduceAdd            0      0.00%     86.13% # Class of committed instruction
system.switch_cpus_1.commit.op_class_0::SimdReduceAlu            0      0.00%     86.13% # Class of committed instruction
system.switch_cpus_1.commit.op_class_0::SimdReduceCmp            0      0.00%     86.13% # Class of committed instruction
system.switch_cpus_1.commit.op_class_0::SimdFloatReduceAdd            0      0.00%     86.13% # Class of committed instruction
system.switch_cpus_1.commit.op_class_0::SimdFloatReduceCmp            0      0.00%     86.13% # Class of committed instruction
system.switch_cpus_1.commit.op_class_0::SimdAes            0      0.00%     86.13% # Class of committed instruction
system.switch_cpus_1.commit.op_class_0::SimdAesMix            0      0.00%     86.13% # Class of committed instruction
system.switch_cpus_1.commit.op_class_0::SimdSha1Hash            0      0.00%     86.13% # Class of committed instruction
system.switch_cpus_1.commit.op_class_0::SimdSha1Hash2            0      0.00%     86.13% # Class of committed instruction
system.switch_cpus_1.commit.op_class_0::SimdSha256Hash            0      0.00%     86.13% # Class of committed instruction
system.switch_cpus_1.commit.op_class_0::SimdSha256Hash2            0      0.00%     86.13% # Class of committed instruction
system.switch_cpus_1.commit.op_class_0::SimdShaSigma2            0      0.00%     86.13% # Class of committed instruction
system.switch_cpus_1.commit.op_class_0::SimdShaSigma3            0      0.00%     86.13% # Class of committed instruction
system.switch_cpus_1.commit.op_class_0::SimdPredAlu            0      0.00%     86.13% # Class of committed instruction
system.switch_cpus_1.commit.op_class_0::MemRead         3729     13.27%     99.41% # Class of committed instruction
system.switch_cpus_1.commit.op_class_0::MemWrite           86      0.31%     99.72% # Class of committed instruction
system.switch_cpus_1.commit.op_class_0::FloatMemRead           76      0.27%     99.99% # Class of committed instruction
system.switch_cpus_1.commit.op_class_0::FloatMemWrite            4      0.01%    100.00% # Class of committed instruction
system.switch_cpus_1.commit.op_class_0::IprAccess            0      0.00%    100.00% # Class of committed instruction
system.switch_cpus_1.commit.op_class_0::InstPrefetch            0      0.00%    100.00% # Class of committed instruction
system.switch_cpus_1.commit.op_class_0::total        28092                       # Class of committed instruction
system.switch_cpus_1.commit.refs                 3895                       # Number of memory references committed
system.switch_cpus_1.commit.swp_count               0                       # Number of s/w prefetches committed
system.switch_cpus_1.commit.vec_insts               0                       # Number of committed Vector instructions.
system.switch_cpus_1.committedInsts             15384                       # Number of Instructions Simulated
system.switch_cpus_1.committedOps               28092                       # Number of Ops (including micro ops) Simulated
system.switch_cpus_1.cpi                     2.774571                       # CPI: Cycles Per Instruction
system.switch_cpus_1.cpi_total               2.774571                       # CPI: Total CPI of All Threads
system.switch_cpus_1.decode.BlockedCycles        24388                       # Number of cycles decode is blocked
system.switch_cpus_1.decode.DecodedInsts        94572                       # Number of instructions handled by decode
system.switch_cpus_1.decode.IdleCycles           3202                       # Number of cycles decode is idle
system.switch_cpus_1.decode.RunCycles           10123                       # Number of cycles decode is running
system.switch_cpus_1.decode.SquashCycles         1014                       # Number of cycles decode is squashing
system.switch_cpus_1.decode.UnblockCycles         2379                       # Number of cycles decode is unblocking
system.switch_cpus_1.dtb.rdAccesses              8596                       # TLB accesses on read requests
system.switch_cpus_1.dtb.rdMisses                 301                       # TLB misses on read requests
system.switch_cpus_1.dtb.wrAccesses               427                       # TLB accesses on write requests
system.switch_cpus_1.dtb.wrMisses                   2                       # TLB misses on write requests
system.switch_cpus_1.fetch.Branches             14744                       # Number of branches that fetch encountered
system.switch_cpus_1.fetch.CacheLines            6281                       # Number of cache lines fetched
system.switch_cpus_1.fetch.Cycles               38632                       # Number of cycles fetch has run and was not squashing or blocked
system.switch_cpus_1.fetch.IcacheSquashes           52                       # Number of outstanding Icache misses that were squashed
system.switch_cpus_1.fetch.Insts                62314                       # Number of instructions fetch has processed
system.switch_cpus_1.fetch.MiscStallCycles           12                       # Number of cycles fetch has spent waiting on interrupts, or bad addresses, or out of MSHRs
system.switch_cpus_1.fetch.PendingTrapStallCycles          114                       # Number of stall cycles due to pending traps
system.switch_cpus_1.fetch.SquashCycles          2028                       # Number of cycles fetch has spent squashing
system.switch_cpus_1.fetch.branchRate        0.345422                       # Number of branch fetches per cycle
system.switch_cpus_1.fetch.icacheStallCycles         1350                       # Number of cycles fetch is stalled on an Icache miss
system.switch_cpus_1.fetch.predictedBranches         4382                       # Number of branches that fetch has predicted taken
system.switch_cpus_1.fetch.rate              1.459891                       # Number of inst fetches per cycle
system.switch_cpus_1.fetch.rateDist::samples        41122                       # Number of instructions fetched each cycle (Total)
system.switch_cpus_1.fetch.rateDist::mean     2.766597                       # Number of instructions fetched each cycle (Total)
system.switch_cpus_1.fetch.rateDist::stdev     3.470574                       # Number of instructions fetched each cycle (Total)
system.switch_cpus_1.fetch.rateDist::underflows            0      0.00%      0.00% # Number of instructions fetched each cycle (Total)
system.switch_cpus_1.fetch.rateDist::0          22721     55.25%     55.25% # Number of instructions fetched each cycle (Total)
system.switch_cpus_1.fetch.rateDist::1            763      1.86%     57.11% # Number of instructions fetched each cycle (Total)
system.switch_cpus_1.fetch.rateDist::2           1131      2.75%     59.86% # Number of instructions fetched each cycle (Total)
system.switch_cpus_1.fetch.rateDist::3           2465      5.99%     65.85% # Number of instructions fetched each cycle (Total)
system.switch_cpus_1.fetch.rateDist::4            487      1.18%     67.04% # Number of instructions fetched each cycle (Total)
system.switch_cpus_1.fetch.rateDist::5           1998      4.86%     71.90% # Number of instructions fetched each cycle (Total)
system.switch_cpus_1.fetch.rateDist::6            438      1.07%     72.96% # Number of instructions fetched each cycle (Total)
system.switch_cpus_1.fetch.rateDist::7            170      0.41%     73.37% # Number of instructions fetched each cycle (Total)
system.switch_cpus_1.fetch.rateDist::8          10949     26.63%    100.00% # Number of instructions fetched each cycle (Total)
system.switch_cpus_1.fetch.rateDist::overflows            0      0.00%    100.00% # Number of instructions fetched each cycle (Total)
system.switch_cpus_1.fetch.rateDist::min_value            0                       # Number of instructions fetched each cycle (Total)
system.switch_cpus_1.fetch.rateDist::max_value            8                       # Number of instructions fetched each cycle (Total)
system.switch_cpus_1.fetch.rateDist::total        41122                       # Number of instructions fetched each cycle (Total)
system.switch_cpus_1.fp_regfile_reads             502                       # number of floating regfile reads
system.switch_cpus_1.fp_regfile_writes            293                       # number of floating regfile writes
system.switch_cpus_1.idleCycles                  1562                       # Total number of cycles that the CPU has spent unscheduled due to idling
system.switch_cpus_1.iew.branchMispredicts         1468                       # Number of branch mispredicts detected at execute
system.switch_cpus_1.iew.exec_branches           5921                       # Number of branches executed
system.switch_cpus_1.iew.exec_nop                   0                       # number of nop insts executed
system.switch_cpus_1.iew.exec_rate           1.389303                       # Inst execution rate
system.switch_cpus_1.iew.exec_refs               9028                       # number of memory reference insts executed
system.switch_cpus_1.iew.exec_stores              427                       # Number of stores executed
system.switch_cpus_1.iew.exec_swp                   0                       # number of swp insts executed
system.switch_cpus_1.iew.iewBlockCycles         12538                       # Number of cycles IEW is blocking
system.switch_cpus_1.iew.iewDispLoadInsts        10375                       # Number of dispatched load instructions
system.switch_cpus_1.iew.iewDispNonSpecInsts            9                       # Number of dispatched non-speculative instructions
system.switch_cpus_1.iew.iewDispSquashedInsts           23                       # Number of squashed instructions skipped by dispatch
system.switch_cpus_1.iew.iewDispStoreInsts          763                       # Number of dispatched store instructions
system.switch_cpus_1.iew.iewDispatchedInsts        77205                       # Number of instructions dispatched to IQ
system.switch_cpus_1.iew.iewExecLoadInsts         8601                       # Number of load instructions executed
system.switch_cpus_1.iew.iewExecSquashedInsts         2323                       # Number of squashed instructions skipped in execute
system.switch_cpus_1.iew.iewExecutedInsts        59301                       # Number of executed instructions
system.switch_cpus_1.iew.iewIQFullEvents           97                       # Number of times the IQ has become full, causing a stall
system.switch_cpus_1.iew.iewIdleCycles              0                       # Number of cycles IEW is idle
system.switch_cpus_1.iew.iewLSQFullEvents            0                       # Number of times the LSQ has become full, causing a stall
system.switch_cpus_1.iew.iewSquashCycles         1014                       # Number of cycles IEW is squashing
system.switch_cpus_1.iew.iewUnblockCycles          116                       # Number of cycles IEW is unblocking
system.switch_cpus_1.iew.lsq.thread0.blockedLoads            0                       # Number of blocked loads due to partial load-store forwarding
system.switch_cpus_1.iew.lsq.thread0.cacheBlocked            5                       # Number of times an access to memory failed due to the cache being blocked
system.switch_cpus_1.iew.lsq.thread0.forwLoads           27                       # Number of loads that had data forwarded from stores
system.switch_cpus_1.iew.lsq.thread0.ignoredResponses            1                       # Number of memory responses ignored because the instruction is squashed
system.switch_cpus_1.iew.lsq.thread0.invAddrLoads            0                       # Number of loads ignored due to an invalid address
system.switch_cpus_1.iew.lsq.thread0.invAddrSwpfs            0                       # Number of software prefetches ignored due to an invalid address
system.switch_cpus_1.iew.lsq.thread0.memOrderViolation            2                       # Number of memory ordering violations
system.switch_cpus_1.iew.lsq.thread0.rescheduledLoads            0                       # Number of loads that were rescheduled
system.switch_cpus_1.iew.lsq.thread0.squashedLoads         6570                       # Number of loads squashed
system.switch_cpus_1.iew.lsq.thread0.squashedStores          673                       # Number of stores squashed
system.switch_cpus_1.iew.memOrderViolationEvents            2                       # Number of memory order violations
system.switch_cpus_1.iew.predictedNotTakenIncorrect         1243                       # Number of branches that were predicted not taken incorrectly
system.switch_cpus_1.iew.predictedTakenIncorrect          225                       # Number of branches that were predicted taken incorrectly
system.switch_cpus_1.iew.wb_consumers           73954                       # num instructions consuming a value
system.switch_cpus_1.iew.wb_count               57443                       # cumulative count of insts written-back
system.switch_cpus_1.iew.wb_fanout           0.634340                       # average fanout of values written-back
system.switch_cpus_1.iew.wb_producers           46912                       # num instructions producing a value
system.switch_cpus_1.iew.wb_rate             1.345774                       # insts written-back per cycle
system.switch_cpus_1.iew.wb_sent                58333                       # cumulative count of insts sent to commit
system.switch_cpus_1.int_regfile_reads          76792                       # number of integer regfile reads
system.switch_cpus_1.int_regfile_writes         50890                       # number of integer regfile writes
system.switch_cpus_1.ipc                     0.360416                       # IPC: Instructions Per Cycle
system.switch_cpus_1.ipc_total               0.360416                       # IPC: Total IPC of All Threads
system.switch_cpus_1.iq.FU_type_0::No_OpClass          629      1.02%      1.02% # Type of FU issued
system.switch_cpus_1.iq.FU_type_0::IntAlu        50941     82.66%     83.68% # Type of FU issued
system.switch_cpus_1.iq.FU_type_0::IntMult            0      0.00%     83.68% # Type of FU issued
system.switch_cpus_1.iq.FU_type_0::IntDiv           15      0.02%     83.71% # Type of FU issued
system.switch_cpus_1.iq.FU_type_0::FloatAdd           23      0.04%     83.75% # Type of FU issued
system.switch_cpus_1.iq.FU_type_0::FloatCmp            0      0.00%     83.75% # Type of FU issued
system.switch_cpus_1.iq.FU_type_0::FloatCvt            0      0.00%     83.75% # Type of FU issued
system.switch_cpus_1.iq.FU_type_0::FloatMult            0      0.00%     83.75% # Type of FU issued
system.switch_cpus_1.iq.FU_type_0::FloatMultAcc            0      0.00%     83.75% # Type of FU issued
system.switch_cpus_1.iq.FU_type_0::FloatDiv            0      0.00%     83.75% # Type of FU issued
system.switch_cpus_1.iq.FU_type_0::FloatMisc            0      0.00%     83.75% # Type of FU issued
system.switch_cpus_1.iq.FU_type_0::FloatSqrt            0      0.00%     83.75% # Type of FU issued
system.switch_cpus_1.iq.FU_type_0::SimdAdd           21      0.03%     83.78% # Type of FU issued
system.switch_cpus_1.iq.FU_type_0::SimdAddAcc            0      0.00%     83.78% # Type of FU issued
system.switch_cpus_1.iq.FU_type_0::SimdAlu           83      0.13%     83.92% # Type of FU issued
system.switch_cpus_1.iq.FU_type_0::SimdCmp            0      0.00%     83.92% # Type of FU issued
system.switch_cpus_1.iq.FU_type_0::SimdCvt           50      0.08%     84.00% # Type of FU issued
system.switch_cpus_1.iq.FU_type_0::SimdMisc           21      0.03%     84.03% # Type of FU issued
system.switch_cpus_1.iq.FU_type_0::SimdMult            0      0.00%     84.03% # Type of FU issued
system.switch_cpus_1.iq.FU_type_0::SimdMultAcc            0      0.00%     84.03% # Type of FU issued
system.switch_cpus_1.iq.FU_type_0::SimdShift           21      0.03%     84.06% # Type of FU issued
system.switch_cpus_1.iq.FU_type_0::SimdShiftAcc            0      0.00%     84.06% # Type of FU issued
system.switch_cpus_1.iq.FU_type_0::SimdDiv            0      0.00%     84.06% # Type of FU issued
system.switch_cpus_1.iq.FU_type_0::SimdSqrt            0      0.00%     84.06% # Type of FU issued
system.switch_cpus_1.iq.FU_type_0::SimdFloatAdd            0      0.00%     84.06% # Type of FU issued
system.switch_cpus_1.iq.FU_type_0::SimdFloatAlu            0      0.00%     84.06% # Type of FU issued
system.switch_cpus_1.iq.FU_type_0::SimdFloatCmp            0      0.00%     84.06% # Type of FU issued
system.switch_cpus_1.iq.FU_type_0::SimdFloatCvt            0      0.00%     84.06% # Type of FU issued
system.switch_cpus_1.iq.FU_type_0::SimdFloatDiv            0      0.00%     84.06% # Type of FU issued
system.switch_cpus_1.iq.FU_type_0::SimdFloatMisc            0      0.00%     84.06% # Type of FU issued
system.switch_cpus_1.iq.FU_type_0::SimdFloatMult            0      0.00%     84.06% # Type of FU issued
system.switch_cpus_1.iq.FU_type_0::SimdFloatMultAcc            0      0.00%     84.06% # Type of FU issued
system.switch_cpus_1.iq.FU_type_0::SimdFloatSqrt            0      0.00%     84.06% # Type of FU issued
system.switch_cpus_1.iq.FU_type_0::SimdReduceAdd            0      0.00%     84.06% # Type of FU issued
system.switch_cpus_1.iq.FU_type_0::SimdReduceAlu            0      0.00%     84.06% # Type of FU issued
system.switch_cpus_1.iq.FU_type_0::SimdReduceCmp            0      0.00%     84.06% # Type of FU issued
system.switch_cpus_1.iq.FU_type_0::SimdFloatReduceAdd            0      0.00%     84.06% # Type of FU issued
system.switch_cpus_1.iq.FU_type_0::SimdFloatReduceCmp            0      0.00%     84.06% # Type of FU issued
system.switch_cpus_1.iq.FU_type_0::SimdAes            0      0.00%     84.06% # Type of FU issued
system.switch_cpus_1.iq.FU_type_0::SimdAesMix            0      0.00%     84.06% # Type of FU issued
system.switch_cpus_1.iq.FU_type_0::SimdSha1Hash            0      0.00%     84.06% # Type of FU issued
system.switch_cpus_1.iq.FU_type_0::SimdSha1Hash2            0      0.00%     84.06% # Type of FU issued
system.switch_cpus_1.iq.FU_type_0::SimdSha256Hash            0      0.00%     84.06% # Type of FU issued
system.switch_cpus_1.iq.FU_type_0::SimdSha256Hash2            0      0.00%     84.06% # Type of FU issued
system.switch_cpus_1.iq.FU_type_0::SimdShaSigma2            0      0.00%     84.06% # Type of FU issued
system.switch_cpus_1.iq.FU_type_0::SimdShaSigma3            0      0.00%     84.06% # Type of FU issued
system.switch_cpus_1.iq.FU_type_0::SimdPredAlu            0      0.00%     84.06% # Type of FU issued
system.switch_cpus_1.iq.FU_type_0::MemRead         9157     14.86%     98.92% # Type of FU issued
system.switch_cpus_1.iq.FU_type_0::MemWrite          431      0.70%     99.62% # Type of FU issued
system.switch_cpus_1.iq.FU_type_0::FloatMemRead          152      0.25%     99.87% # Type of FU issued
system.switch_cpus_1.iq.FU_type_0::FloatMemWrite           80      0.13%    100.00% # Type of FU issued
system.switch_cpus_1.iq.FU_type_0::IprAccess            0      0.00%    100.00% # Type of FU issued
system.switch_cpus_1.iq.FU_type_0::InstPrefetch            0      0.00%    100.00% # Type of FU issued
system.switch_cpus_1.iq.FU_type_0::total        61624                       # Type of FU issued
system.switch_cpus_1.iq.fp_alu_accesses           480                       # Number of floating point alu accesses
system.switch_cpus_1.iq.fp_inst_queue_reads          947                       # Number of floating instruction queue reads
system.switch_cpus_1.iq.fp_inst_queue_wakeup_accesses          379                       # Number of floating instruction queue wakeup accesses
system.switch_cpus_1.iq.fp_inst_queue_writes         1069                       # Number of floating instruction queue writes
system.switch_cpus_1.iq.fu_busy_cnt              2088                       # FU busy when requested
system.switch_cpus_1.iq.fu_busy_rate         0.033883                       # FU busy rate (busy events/executed inst)
system.switch_cpus_1.iq.fu_full::No_OpClass            0      0.00%      0.00% # attempts to use FU when none available
system.switch_cpus_1.iq.fu_full::IntAlu          1921     92.00%     92.00% # attempts to use FU when none available
system.switch_cpus_1.iq.fu_full::IntMult            0      0.00%     92.00% # attempts to use FU when none available
system.switch_cpus_1.iq.fu_full::IntDiv             0      0.00%     92.00% # attempts to use FU when none available
system.switch_cpus_1.iq.fu_full::FloatAdd            0      0.00%     92.00% # attempts to use FU when none available
system.switch_cpus_1.iq.fu_full::FloatCmp            0      0.00%     92.00% # attempts to use FU when none available
system.switch_cpus_1.iq.fu_full::FloatCvt            0      0.00%     92.00% # attempts to use FU when none available
system.switch_cpus_1.iq.fu_full::FloatMult            0      0.00%     92.00% # attempts to use FU when none available
system.switch_cpus_1.iq.fu_full::FloatMultAcc            0      0.00%     92.00% # attempts to use FU when none available
system.switch_cpus_1.iq.fu_full::FloatDiv            0      0.00%     92.00% # attempts to use FU when none available
system.switch_cpus_1.iq.fu_full::FloatMisc            0      0.00%     92.00% # attempts to use FU when none available
system.switch_cpus_1.iq.fu_full::FloatSqrt            0      0.00%     92.00% # attempts to use FU when none available
system.switch_cpus_1.iq.fu_full::SimdAdd            0      0.00%     92.00% # attempts to use FU when none available
system.switch_cpus_1.iq.fu_full::SimdAddAcc            0      0.00%     92.00% # attempts to use FU when none available
system.switch_cpus_1.iq.fu_full::SimdAlu            0      0.00%     92.00% # attempts to use FU when none available
system.switch_cpus_1.iq.fu_full::SimdCmp            0      0.00%     92.00% # attempts to use FU when none available
system.switch_cpus_1.iq.fu_full::SimdCvt            1      0.05%     92.05% # attempts to use FU when none available
system.switch_cpus_1.iq.fu_full::SimdMisc            0      0.00%     92.05% # attempts to use FU when none available
system.switch_cpus_1.iq.fu_full::SimdMult            0      0.00%     92.05% # attempts to use FU when none available
system.switch_cpus_1.iq.fu_full::SimdMultAcc            0      0.00%     92.05% # attempts to use FU when none available
system.switch_cpus_1.iq.fu_full::SimdShift            0      0.00%     92.05% # attempts to use FU when none available
system.switch_cpus_1.iq.fu_full::SimdShiftAcc            0      0.00%     92.05% # attempts to use FU when none available
system.switch_cpus_1.iq.fu_full::SimdDiv            0      0.00%     92.05% # attempts to use FU when none available
system.switch_cpus_1.iq.fu_full::SimdSqrt            0      0.00%     92.05% # attempts to use FU when none available
system.switch_cpus_1.iq.fu_full::SimdFloatAdd            0      0.00%     92.05% # attempts to use FU when none available
system.switch_cpus_1.iq.fu_full::SimdFloatAlu            0      0.00%     92.05% # attempts to use FU when none available
system.switch_cpus_1.iq.fu_full::SimdFloatCmp            0      0.00%     92.05% # attempts to use FU when none available
system.switch_cpus_1.iq.fu_full::SimdFloatCvt            0      0.00%     92.05% # attempts to use FU when none available
system.switch_cpus_1.iq.fu_full::SimdFloatDiv            0      0.00%     92.05% # attempts to use FU when none available
system.switch_cpus_1.iq.fu_full::SimdFloatMisc            0      0.00%     92.05% # attempts to use FU when none available
system.switch_cpus_1.iq.fu_full::SimdFloatMult            0      0.00%     92.05% # attempts to use FU when none available
system.switch_cpus_1.iq.fu_full::SimdFloatMultAcc            0      0.00%     92.05% # attempts to use FU when none available
system.switch_cpus_1.iq.fu_full::SimdFloatSqrt            0      0.00%     92.05% # attempts to use FU when none available
system.switch_cpus_1.iq.fu_full::SimdReduceAdd            0      0.00%     92.05% # attempts to use FU when none available
system.switch_cpus_1.iq.fu_full::SimdReduceAlu            0      0.00%     92.05% # attempts to use FU when none available
system.switch_cpus_1.iq.fu_full::SimdReduceCmp            0      0.00%     92.05% # attempts to use FU when none available
system.switch_cpus_1.iq.fu_full::SimdFloatReduceAdd            0      0.00%     92.05% # attempts to use FU when none available
system.switch_cpus_1.iq.fu_full::SimdFloatReduceCmp            0      0.00%     92.05% # attempts to use FU when none available
system.switch_cpus_1.iq.fu_full::SimdAes            0      0.00%     92.05% # attempts to use FU when none available
system.switch_cpus_1.iq.fu_full::SimdAesMix            0      0.00%     92.05% # attempts to use FU when none available
system.switch_cpus_1.iq.fu_full::SimdSha1Hash            0      0.00%     92.05% # attempts to use FU when none available
system.switch_cpus_1.iq.fu_full::SimdSha1Hash2            0      0.00%     92.05% # attempts to use FU when none available
system.switch_cpus_1.iq.fu_full::SimdSha256Hash            0      0.00%     92.05% # attempts to use FU when none available
system.switch_cpus_1.iq.fu_full::SimdSha256Hash2            0      0.00%     92.05% # attempts to use FU when none available
system.switch_cpus_1.iq.fu_full::SimdShaSigma2            0      0.00%     92.05% # attempts to use FU when none available
system.switch_cpus_1.iq.fu_full::SimdShaSigma3            0      0.00%     92.05% # attempts to use FU when none available
system.switch_cpus_1.iq.fu_full::SimdPredAlu            0      0.00%     92.05% # attempts to use FU when none available
system.switch_cpus_1.iq.fu_full::MemRead          133      6.37%     98.42% # attempts to use FU when none available
system.switch_cpus_1.iq.fu_full::MemWrite            9      0.43%     98.85% # attempts to use FU when none available
system.switch_cpus_1.iq.fu_full::FloatMemRead            9      0.43%     99.28% # attempts to use FU when none available
system.switch_cpus_1.iq.fu_full::FloatMemWrite           15      0.72%    100.00% # attempts to use FU when none available
system.switch_cpus_1.iq.fu_full::IprAccess            0      0.00%    100.00% # attempts to use FU when none available
system.switch_cpus_1.iq.fu_full::InstPrefetch            0      0.00%    100.00% # attempts to use FU when none available
system.switch_cpus_1.iq.int_alu_accesses        62603                       # Number of integer alu accesses
system.switch_cpus_1.iq.int_inst_queue_reads       166718                       # Number of integer instruction queue reads
system.switch_cpus_1.iq.int_inst_queue_wakeup_accesses        57064                       # Number of integer instruction queue wakeup accesses
system.switch_cpus_1.iq.int_inst_queue_writes       125251                       # Number of integer instruction queue writes
system.switch_cpus_1.iq.iqInstsAdded            77196                       # Number of instructions added to the IQ (excludes non-spec)
system.switch_cpus_1.iq.iqInstsIssued           61624                       # Number of instructions issued
system.switch_cpus_1.iq.iqNonSpecInstsAdded            9                       # Number of non-speculative instructions added to the IQ
system.switch_cpus_1.iq.iqSquashedInstsExamined        49113                       # Number of squashed instructions iterated over during squash; mainly for profiling
system.switch_cpus_1.iq.iqSquashedInstsIssued         1207                       # Number of squashed instructions issued
system.switch_cpus_1.iq.iqSquashedOperandsExamined        72479                       # Number of squashed operands that are examined and possibly removed from graph
system.switch_cpus_1.iq.issued_per_cycle::samples        41122                       # Number of insts issued each cycle
system.switch_cpus_1.iq.issued_per_cycle::mean     1.498565                       # Number of insts issued each cycle
system.switch_cpus_1.iq.issued_per_cycle::stdev     2.477851                       # Number of insts issued each cycle
system.switch_cpus_1.iq.issued_per_cycle::underflows            0      0.00%      0.00% # Number of insts issued each cycle
system.switch_cpus_1.iq.issued_per_cycle::0        27898     67.84%     67.84% # Number of insts issued each cycle
system.switch_cpus_1.iq.issued_per_cycle::1         1373      3.34%     71.18% # Number of insts issued each cycle
system.switch_cpus_1.iq.issued_per_cycle::2         1149      2.79%     73.98% # Number of insts issued each cycle
system.switch_cpus_1.iq.issued_per_cycle::3         1415      3.44%     77.42% # Number of insts issued each cycle
system.switch_cpus_1.iq.issued_per_cycle::4         2008      4.88%     82.30% # Number of insts issued each cycle
system.switch_cpus_1.iq.issued_per_cycle::5         1760      4.28%     86.58% # Number of insts issued each cycle
system.switch_cpus_1.iq.issued_per_cycle::6         2956      7.19%     93.77% # Number of insts issued each cycle
system.switch_cpus_1.iq.issued_per_cycle::7         1364      3.32%     97.08% # Number of insts issued each cycle
system.switch_cpus_1.iq.issued_per_cycle::8         1199      2.92%    100.00% # Number of insts issued each cycle
system.switch_cpus_1.iq.issued_per_cycle::overflows            0      0.00%    100.00% # Number of insts issued each cycle
system.switch_cpus_1.iq.issued_per_cycle::min_value            0                       # Number of insts issued each cycle
system.switch_cpus_1.iq.issued_per_cycle::max_value            8                       # Number of insts issued each cycle
system.switch_cpus_1.iq.issued_per_cycle::total        41122                       # Number of insts issued each cycle
system.switch_cpus_1.iq.rate                 1.443726                       # Inst issue rate
system.switch_cpus_1.iq.vec_alu_accesses            0                       # Number of vector alu accesses
system.switch_cpus_1.iq.vec_inst_queue_reads            0                       # Number of vector instruction queue reads
system.switch_cpus_1.iq.vec_inst_queue_wakeup_accesses            0                       # Number of vector instruction queue wakeup accesses
system.switch_cpus_1.iq.vec_inst_queue_writes            0                       # Number of vector instruction queue writes
system.switch_cpus_1.itb.rdAccesses                 0                       # TLB accesses on read requests
system.switch_cpus_1.itb.rdMisses                   0                       # TLB misses on read requests
system.switch_cpus_1.itb.wrAccesses              6299                       # TLB accesses on write requests
system.switch_cpus_1.itb.wrMisses                  30                       # TLB misses on write requests
system.switch_cpus_1.memDep0.conflictingLoads           19                       # Number of conflicting loads.
system.switch_cpus_1.memDep0.conflictingStores            0                       # Number of conflicting stores.
system.switch_cpus_1.memDep0.insertedLoads        10375                       # Number of loads inserted to the mem dependence unit.
system.switch_cpus_1.memDep0.insertedStores          763                       # Number of stores inserted to the mem dependence unit.
system.switch_cpus_1.misc_regfile_reads         24517                       # number of misc regfile reads
system.switch_cpus_1.misc_regfile_writes            9                       # number of misc regfile writes
system.switch_cpus_1.numCycles                  42684                       # number of cpu cycles simulated
system.switch_cpus_1.numWorkItemsCompleted            0                       # number of work items this cpu completed
system.switch_cpus_1.numWorkItemsStarted            0                       # number of work items this cpu started
system.switch_cpus_1.rename.BlockCycles         22788                       # Number of cycles rename is blocking
system.switch_cpus_1.rename.CommittedMaps        36802                       # Number of HB maps that are committed
system.switch_cpus_1.rename.IQFullEvents          988                       # Number of times rename has blocked due to IQ full
system.switch_cpus_1.rename.IdleCycles           4311                       # Number of cycles rename is idle
system.switch_cpus_1.rename.LQFullEvents           16                       # Number of times rename has blocked due to LQ full
system.switch_cpus_1.rename.ROBFullEvents          422                       # Number of times rename has blocked due to ROB full
system.switch_cpus_1.rename.RenameLookups       230198                       # Number of register rename lookups that rename has made
system.switch_cpus_1.rename.RenamedInsts        88267                       # Number of instructions processed by rename
system.switch_cpus_1.rename.RenamedOperands       113245                       # Number of destination operands rename has renamed
system.switch_cpus_1.rename.RunCycles           11146                       # Number of cycles rename is running
system.switch_cpus_1.rename.SQFullEvents            7                       # Number of times rename has blocked due to SQ full
system.switch_cpus_1.rename.SquashCycles         1014                       # Number of cycles rename is squashing
system.switch_cpus_1.rename.UnblockCycles         1740                       # Number of cycles rename is unblocking
system.switch_cpus_1.rename.UndoneMaps          76429                       # Number of HB maps that are undone due to squashing
system.switch_cpus_1.rename.fp_rename_lookups         1152                       # Number of floating rename lookups
system.switch_cpus_1.rename.int_rename_lookups       127163                       # Number of integer rename lookups
system.switch_cpus_1.rename.serializeStallCycles          108                       # count of cycles rename stalled for serializing inst
system.switch_cpus_1.rename.serializingInsts            9                       # count of serializing insts renamed
system.switch_cpus_1.rename.skidInsts            5938                       # count of insts added to the skid buffer
system.switch_cpus_1.rename.tempSerializingInsts            9                       # count of temporary serializing insts renamed
system.switch_cpus_1.rob.rob_reads             109363                       # The number of ROB reads
system.switch_cpus_1.rob.rob_writes            161684                       # The number of ROB writes
system.switch_cpus_1.timesIdled                    13                       # Number of times that the entire CPU went into an idle state and unscheduled itself
system.tol2bus.snoop_filter.hit_multi_requests            2                       # Number of requests hitting in the snoop filter with multiple (>1) holders of the requested data.
system.tol2bus.snoop_filter.hit_multi_snoops            0                       # Number of snoops hitting in the snoop filter with multiple (>1) holders of the requested data.
system.tol2bus.snoop_filter.hit_single_requests          282                       # Number of requests hitting in the snoop filter with a single holder of the requested data.
system.tol2bus.snoop_filter.hit_single_snoops            2                       # Number of snoops hitting in the snoop filter with a single holder of the requested data.
system.tol2bus.snoop_filter.tot_requests          575                       # Total number of requests made to the snoop filter.
system.tol2bus.snoop_filter.tot_snoops              2                       # Total number of snoops made to the snoop filter.
system.tol3bus.snoop_filter.hit_multi_requests            0                       # Number of requests hitting in the snoop filter with multiple (>1) holders of the requested data.
system.tol3bus.snoop_filter.hit_multi_snoops            0                       # Number of snoops hitting in the snoop filter with multiple (>1) holders of the requested data.
system.tol3bus.snoop_filter.hit_single_requests            5                       # Number of requests hitting in the snoop filter with a single holder of the requested data.
system.tol3bus.snoop_filter.hit_single_snoops            0                       # Number of snoops hitting in the snoop filter with a single holder of the requested data.
system.tol3bus.snoop_filter.tot_requests          256                       # Total number of requests made to the snoop filter.
system.tol3bus.snoop_filter.tot_snoops              0                       # Total number of snoops made to the snoop filter.
system.membus.trans_dist::ReadResp                251                       # Transaction distribution
system.membus.trans_dist::ReadSharedReq           251                       # Transaction distribution
system.membus.pkt_count_system.l3.mem_side::system.mem_ctrls.port          502                       # Packet count per connected master and slave (bytes)
system.membus.pkt_count_system.l3.mem_side::total          502                       # Packet count per connected master and slave (bytes)
system.membus.pkt_count::total                    502                       # Packet count per connected master and slave (bytes)
system.membus.pkt_size_system.l3.mem_side::system.mem_ctrls.port        16064                       # Cumulative packet size per connected master and slave (bytes)
system.membus.pkt_size_system.l3.mem_side::total        16064                       # Cumulative packet size per connected master and slave (bytes)
system.membus.pkt_size::total                   16064                       # Cumulative packet size per connected master and slave (bytes)
system.membus.snoops                                0                       # Total snoops (count)
system.membus.snoopTraffic                          0                       # Total snoop traffic (bytes)
system.membus.snoop_fanout::samples               251                       # Request fanout histogram
system.membus.snoop_fanout::mean                    0                       # Request fanout histogram
system.membus.snoop_fanout::stdev                   0                       # Request fanout histogram
system.membus.snoop_fanout::underflows              0      0.00%      0.00% # Request fanout histogram
system.membus.snoop_fanout::0                     251    100.00%    100.00% # Request fanout histogram
system.membus.snoop_fanout::1                       0      0.00%    100.00% # Request fanout histogram
system.membus.snoop_fanout::overflows               0      0.00%    100.00% # Request fanout histogram
system.membus.snoop_fanout::min_value               0                       # Request fanout histogram
system.membus.snoop_fanout::max_value               0                       # Request fanout histogram
system.membus.snoop_fanout::total                 251                       # Request fanout histogram
system.membus.reqLayer2.occupancy              318000                       # Layer occupancy (ticks)
system.membus.reqLayer2.utilization               1.5                       # Layer utilization (%)
system.membus.respLayer1.occupancy            1328000                       # Layer occupancy (ticks)
system.membus.respLayer1.utilization              6.2                       # Layer utilization (%)
system.membus.power_state.pwrStateResidencyTicks::UNDEFINED    333066000                       # Cumulative time (in ticks) in various power states
system.switch_cpus_1.dtb.walker.power_state.pwrStateResidencyTicks::UNDEFINED    333066000                       # Cumulative time (in ticks) in various power states
system.switch_cpus_1.itb.walker.power_state.pwrStateResidencyTicks::UNDEFINED    333066000                       # Cumulative time (in ticks) in various power states
system.switch_cpus_1.power_state.pwrStateResidencyTicks::OFF    333066000                       # Cumulative time (in ticks) in various power states
system.switch_cpus.dtb.walker.power_state.pwrStateResidencyTicks::UNDEFINED    333066000                       # Cumulative time (in ticks) in various power states
system.switch_cpus.itb.walker.power_state.pwrStateResidencyTicks::UNDEFINED    333066000                       # Cumulative time (in ticks) in various power states
system.switch_cpus.power_state.numTransitions            1                       # Number of power state transitions
system.switch_cpus.power_state.pwrStateResidencyTicks::OFF    333066000                       # Cumulative time (in ticks) in various power states
system.tol2bus.trans_dist::ReadResp               284                       # Transaction distribution
system.tol2bus.trans_dist::WritebackDirty           80                       # Transaction distribution
system.tol2bus.trans_dist::WritebackClean           21                       # Transaction distribution
system.tol2bus.trans_dist::CleanEvict             190                       # Transaction distribution
system.tol2bus.trans_dist::ReadExReq                6                       # Transaction distribution
system.tol2bus.trans_dist::ReadExResp               6                       # Transaction distribution
system.tol2bus.trans_dist::ReadCleanReq            26                       # Transaction distribution
system.tol2bus.trans_dist::ReadSharedReq          259                       # Transaction distribution
system.tol2bus.pkt_count_system.cpu.icache.mem_side::system.l2.cpu_side           73                       # Packet count per connected master and slave (bytes)
system.tol2bus.pkt_count_system.cpu.dcache.mem_side::system.l2.cpu_side          792                       # Packet count per connected master and slave (bytes)
system.tol2bus.pkt_count::total                   865                       # Packet count per connected master and slave (bytes)
system.tol2bus.pkt_size_system.cpu.icache.mem_side::system.l2.cpu_side         3008                       # Cumulative packet size per connected master and slave (bytes)
system.tol2bus.pkt_size_system.cpu.dcache.mem_side::system.l2.cpu_side        21888                       # Cumulative packet size per connected master and slave (bytes)
system.tol2bus.pkt_size::total                  24896                       # Cumulative packet size per connected master and slave (bytes)
system.tol2bus.snoops                               7                       # Total snoops (count)
system.tol2bus.snoopTraffic                       128                       # Total snoop traffic (bytes)
system.tol2bus.snoop_fanout::samples              298                       # Request fanout histogram
system.tol2bus.snoop_fanout::mean            0.006711                       # Request fanout histogram
system.tol2bus.snoop_fanout::stdev           0.081785                       # Request fanout histogram
system.tol2bus.snoop_fanout::underflows             0      0.00%      0.00% # Request fanout histogram
system.tol2bus.snoop_fanout::0                    296     99.33%     99.33% # Request fanout histogram
system.tol2bus.snoop_fanout::1                      2      0.67%    100.00% # Request fanout histogram
system.tol2bus.snoop_fanout::2                      0      0.00%    100.00% # Request fanout histogram
system.tol2bus.snoop_fanout::3                      0      0.00%    100.00% # Request fanout histogram
system.tol2bus.snoop_fanout::4                      0      0.00%    100.00% # Request fanout histogram
system.tol2bus.snoop_fanout::overflows              0      0.00%    100.00% # Request fanout histogram
system.tol2bus.snoop_fanout::min_value              0                       # Request fanout histogram
system.tol2bus.snoop_fanout::max_value              1                       # Request fanout histogram
system.tol2bus.snoop_fanout::total                298                       # Request fanout histogram
system.tol2bus.reqLayer0.occupancy             386500                       # Layer occupancy (ticks)
system.tol2bus.reqLayer0.utilization              1.8                       # Layer utilization (%)
system.tol2bus.respLayer1.occupancy            396000                       # Layer occupancy (ticks)
system.tol2bus.respLayer1.utilization             1.9                       # Layer utilization (%)
system.tol2bus.respLayer0.occupancy             39000                       # Layer occupancy (ticks)
system.tol2bus.respLayer0.utilization             0.2                       # Layer utilization (%)
system.tol2bus.power_state.pwrStateResidencyTicks::UNDEFINED    333066000                       # Cumulative time (in ticks) in various power states
system.voltage_domain.voltage                       1                       # Voltage in Volts
system.clk_domain.clock                          1000                       # Clock period in ticks
system.l2.demand_hits::.switch_cpus_1.data           40                       # number of demand (read+write) hits
system.l2.demand_hits::total                       40                       # number of demand (read+write) hits
system.l2.overall_hits::.switch_cpus_1.data           40                       # number of overall hits
system.l2.overall_hits::total                      40                       # number of overall hits
system.l2.demand_misses::.switch_cpus_1.inst           26                       # number of demand (read+write) misses
system.l2.demand_misses::.switch_cpus_1.data          225                       # number of demand (read+write) misses
system.l2.demand_misses::total                    251                       # number of demand (read+write) misses
system.l2.overall_misses::.switch_cpus_1.inst           26                       # number of overall misses
system.l2.overall_misses::.switch_cpus_1.data          225                       # number of overall misses
system.l2.overall_misses::total                   251                       # number of overall misses
system.l2.demand_miss_latency::.switch_cpus_1.inst      2210000                       # number of demand (read+write) miss cycles
system.l2.demand_miss_latency::.switch_cpus_1.data     19545500                       # number of demand (read+write) miss cycles
system.l2.demand_miss_latency::total         21755500                       # number of demand (read+write) miss cycles
system.l2.overall_miss_latency::.switch_cpus_1.inst      2210000                       # number of overall miss cycles
system.l2.overall_miss_latency::.switch_cpus_1.data     19545500                       # number of overall miss cycles
system.l2.overall_miss_latency::total        21755500                       # number of overall miss cycles
system.l2.demand_accesses::.switch_cpus_1.inst           26                       # number of demand (read+write) accesses
system.l2.demand_accesses::.switch_cpus_1.data          265                       # number of demand (read+write) accesses
system.l2.demand_accesses::total                  291                       # number of demand (read+write) accesses
system.l2.overall_accesses::.switch_cpus_1.inst           26                       # number of overall (read+write) accesses
system.l2.overall_accesses::.switch_cpus_1.data          265                       # number of overall (read+write) accesses
system.l2.overall_accesses::total                 291                       # number of overall (read+write) accesses
system.l2.demand_miss_rate::.switch_cpus_1.inst            1                       # miss rate for demand accesses
system.l2.demand_miss_rate::.switch_cpus_1.data     0.849057                       # miss rate for demand accesses
system.l2.demand_miss_rate::total            0.862543                       # miss rate for demand accesses
system.l2.overall_miss_rate::.switch_cpus_1.inst            1                       # miss rate for overall accesses
system.l2.overall_miss_rate::.switch_cpus_1.data     0.849057                       # miss rate for overall accesses
system.l2.overall_miss_rate::total           0.862543                       # miss rate for overall accesses
system.l2.demand_avg_miss_latency::.switch_cpus_1.inst        85000                       # average overall miss latency
system.l2.demand_avg_miss_latency::.switch_cpus_1.data 86868.888889                       # average overall miss latency
system.l2.demand_avg_miss_latency::total 86675.298805                       # average overall miss latency
system.l2.overall_avg_miss_latency::.switch_cpus_1.inst        85000                       # average overall miss latency
system.l2.overall_avg_miss_latency::.switch_cpus_1.data 86868.888889                       # average overall miss latency
[...]
system.cpu.dcache.overall_hits::.switch_cpus.data        36749                       # number of overall hits
system.cpu.dcache.overall_hits::.switch_cpus_1.data         6076                       # number of overall hits
system.cpu.dcache.overall_hits::total           42825                       # number of overall hits
system.cpu.dcache.demand_misses::.switch_cpus.data         1925                       # number of demand (read+write) misses
system.cpu.dcache.demand_misses::.switch_cpus_1.data         2303                       # number of demand (read+write) misses
system.cpu.dcache.demand_misses::total           4228                       # number of demand (read+write) misses
system.cpu.dcache.overall_misses::.switch_cpus.data         1925                       # number of overall misses
system.cpu.dcache.overall_misses::.switch_cpus_1.data         2303                       # number of overall misses
system.cpu.dcache.overall_misses::total          4228                       # number of overall misses
system.cpu.dcache.demand_miss_latency::.switch_cpus.data    151591500                       # number of demand (read+write) miss cycles
system.cpu.dcache.demand_miss_latency::.switch_cpus_1.data    151973000                       # number of demand (read+write) miss cycles
system.cpu.dcache.demand_miss_latency::total    303564500                       # number of demand (read+write) miss cycles
system.cpu.dcache.overall_miss_latency::.switch_cpus.data    151591500                       # number of overall miss cycles
system.cpu.dcache.overall_miss_latency::.switch_cpus_1.data    151973000                       # number of overall miss cycles
system.cpu.dcache.overall_miss_latency::total    303564500                       # number of overall miss cycles
system.cpu.dcache.demand_accesses::.switch_cpus.data        38674                       # number of demand (read+write) accesses
system.cpu.dcache.demand_accesses::.switch_cpus_1.data         8379                       # number of demand (read+write) accesses
system.cpu.dcache.demand_accesses::total        47053                       # number of demand (read+write) accesses
system.cpu.dcache.overall_accesses::.switch_cpus.data        38674                       # number of overall (read+write) accesses
system.cpu.dcache.overall_accesses::.switch_cpus_1.data         8379                       # number of overall (read+write) accesses
system.cpu.dcache.overall_accesses::total        47053                       # number of overall (read+write) accesses
system.cpu.dcache.demand_miss_rate::.switch_cpus.data     0.049775                       # miss rate for demand accesses
system.cpu.dcache.demand_miss_rate::.switch_cpus_1.data     0.274854                       # miss rate for demand accesses
system.cpu.dcache.demand_miss_rate::total     0.089856                       # miss rate for demand accesses
system.cpu.dcache.overall_miss_rate::.switch_cpus.data     0.049775                       # miss rate for overall accesses
system.cpu.dcache.overall_miss_rate::.switch_cpus_1.data     0.274854                       # miss rate for overall accesses
system.cpu.dcache.overall_miss_rate::total     0.089856                       # miss rate for overall accesses
system.cpu.dcache.demand_avg_miss_latency::.switch_cpus.data 78748.831169                       # average overall miss latency
system.cpu.dcache.demand_avg_miss_latency::.switch_cpus_1.data 65989.144594                       # average overall miss latency
system.cpu.dcache.demand_avg_miss_latency::total 71798.604541                       # average overall miss latency
system.cpu.dcache.overall_avg_miss_latency::.switch_cpus.data 78748.831169                       # average overall miss latency
system.cpu.dcache.overall_avg_miss_latency::.switch_cpus_1.data 65989.144594                       # average overall miss latency
system.cpu.dcache.overall_avg_miss_latency::total 71798.604541                       # average overall miss latency
system.cpu.dcache.blocked_cycles::no_mshrs          105                       # number of cycles access was blocked
system.cpu.dcache.blocked_cycles::no_targets          333                       # number of cycles access was blocked
system.cpu.dcache.blocked::no_mshrs                 2                       # number of cycles access was blocked
system.cpu.dcache.blocked::no_targets               5                       # number of cycles access was blocked
system.cpu.dcache.avg_blocked_cycles::no_mshrs    52.500000                       # average number of cycles each access was blocked
system.cpu.dcache.avg_blocked_cycles::no_targets    66.600000                       # average number of cycles each access was blocked
system.cpu.dcache.writebacks::.writebacks          613                       # number of writebacks
system.cpu.dcache.writebacks::total               613                       # number of writebacks
system.cpu.dcache.demand_mshr_hits::.switch_cpus_1.data         2038                       # number of demand (read+write) MSHR hits
system.cpu.dcache.demand_mshr_hits::total         2038                       # number of demand (read+write) MSHR hits
system.cpu.dcache.overall_mshr_hits::.switch_cpus_1.data         2038                       # number of overall MSHR hits
system.cpu.dcache.overall_mshr_hits::total         2038                       # number of overall MSHR hits
system.cpu.dcache.demand_mshr_misses::.switch_cpus.data         1925                       # number of demand (read+write) MSHR misses
system.cpu.dcache.demand_mshr_misses::.switch_cpus_1.data          265                       # number of demand (read+write) MSHR misses
system.cpu.dcache.demand_mshr_misses::total         2190                       # number of demand (read+write) MSHR misses
system.cpu.dcache.overall_mshr_misses::.switch_cpus.data         1925                       # number of overall MSHR misses
system.cpu.dcache.overall_mshr_misses::.switch_cpus_1.data          265                       # number of overall MSHR misses
system.cpu.dcache.overall_mshr_misses::total         2190                       # number of overall MSHR misses
system.cpu.dcache.demand_mshr_miss_latency::.switch_cpus.data    150629000                       # number of demand (read+write) MSHR miss cycles
system.cpu.dcache.demand_mshr_miss_latency::.switch_cpus_1.data     20032500                       # number of demand (read+write) MSHR miss cycles
system.cpu.dcache.demand_mshr_miss_latency::total    170661500                       # number of demand (read+write) MSHR miss cycles
system.cpu.dcache.overall_mshr_miss_latency::.switch_cpus.data    150629000                       # number of overall MSHR miss cycles
system.cpu.dcache.overall_mshr_miss_latency::.switch_cpus_1.data     20032500                       # number of overall MSHR miss cycles
system.cpu.dcache.overall_mshr_miss_latency::total    170661500                       # number of overall MSHR miss cycles
system.cpu.dcache.demand_mshr_miss_rate::.switch_cpus.data     0.049775                       # mshr miss rate for demand accesses
system.cpu.dcache.demand_mshr_miss_rate::.switch_cpus_1.data     0.031627                       # mshr miss rate for demand accesses
system.cpu.dcache.demand_mshr_miss_rate::total     0.046543                       # mshr miss rate for demand accesses
system.cpu.dcache.overall_mshr_miss_rate::.switch_cpus.data     0.049775                       # mshr miss rate for overall accesses
system.cpu.dcache.overall_mshr_miss_rate::.switch_cpus_1.data     0.031627                       # mshr miss rate for overall accesses
system.cpu.dcache.overall_mshr_miss_rate::total     0.046543                       # mshr miss rate for overall accesses
system.cpu.dcache.demand_avg_mshr_miss_latency::.switch_cpus.data 78248.831169                       # average overall mshr miss latency
system.cpu.dcache.demand_avg_mshr_miss_latency::.switch_cpus_1.data 75594.339623                       # average overall mshr miss latency
system.cpu.dcache.demand_avg_mshr_miss_latency::total 77927.625571                       # average overall mshr miss latency
system.cpu.dcache.overall_avg_mshr_miss_latency::.switch_cpus.data 78248.831169                       # average overall mshr miss latency
system.cpu.dcache.overall_avg_mshr_miss_latency::.switch_cpus_1.data 75594.339623                       # average overall mshr miss latency
system.cpu.dcache.overall_avg_mshr_miss_latency::total 77927.625571                       # average overall mshr miss latency
system.cpu.dcache.replacements                   1677                       # number of replacements
system.cpu.dcache.ReadReq_hits::.switch_cpus.data        26134                       # number of ReadReq hits
system.cpu.dcache.ReadReq_hits::.switch_cpus_1.data         5993                       # number of ReadReq hits
system.cpu.dcache.ReadReq_hits::total           32127                       # number of ReadReq hits
system.cpu.dcache.ReadReq_misses::.switch_cpus.data         1392                       # number of ReadReq misses
system.cpu.dcache.ReadReq_misses::.switch_cpus_1.data         2296                       # number of ReadReq misses
system.cpu.dcache.ReadReq_misses::total          3688                       # number of ReadReq misses
system.cpu.dcache.ReadReq_miss_latency::.switch_cpus.data    106899500                       # number of ReadReq miss cycles
system.cpu.dcache.ReadReq_miss_latency::.switch_cpus_1.data    151924000                       # number of ReadReq miss cycles
system.cpu.dcache.ReadReq_miss_latency::total    258823500                       # number of ReadReq miss cycles
system.cpu.dcache.ReadReq_accesses::.switch_cpus.data        27526                       # number of ReadReq accesses(hits+misses)
system.cpu.dcache.ReadReq_accesses::.switch_cpus_1.data         8289                       # number of ReadReq accesses(hits+misses)
system.cpu.dcache.ReadReq_accesses::total        35815                       # number of ReadReq accesses(hits+misses)
system.cpu.dcache.ReadReq_miss_rate::.switch_cpus.data     0.050570                       # miss rate for ReadReq accesses
system.cpu.dcache.ReadReq_miss_rate::.switch_cpus_1.data     0.276994                       # miss rate for ReadReq accesses
system.cpu.dcache.ReadReq_miss_rate::total     0.102974                       # miss rate for ReadReq accesses
system.cpu.dcache.ReadReq_avg_miss_latency::.switch_cpus.data 76795.617816                       # average ReadReq miss latency
system.cpu.dcache.ReadReq_avg_miss_latency::.switch_cpus_1.data 66168.989547                       # average ReadReq miss latency
system.cpu.dcache.ReadReq_avg_miss_latency::total 70179.907809                       # average ReadReq miss latency
system.cpu.dcache.ReadReq_mshr_hits::.switch_cpus_1.data         2037                       # number of ReadReq MSHR hits
system.cpu.dcache.ReadReq_mshr_hits::total         2037                       # number of ReadReq MSHR hits
system.cpu.dcache.ReadReq_mshr_misses::.switch_cpus.data         1392                       # number of ReadReq MSHR misses
system.cpu.dcache.ReadReq_mshr_misses::.switch_cpus_1.data          259                       # number of ReadReq MSHR misses
system.cpu.dcache.ReadReq_mshr_misses::total         1651                       # number of ReadReq MSHR misses
system.cpu.dcache.ReadReq_mshr_miss_latency::.switch_cpus.data    106203500                       # number of ReadReq MSHR miss cycles
system.cpu.dcache.ReadReq_mshr_miss_latency::.switch_cpus_1.data     19992500                       # number of ReadReq MSHR miss cycles
system.cpu.dcache.ReadReq_mshr_miss_latency::total    126196000                       # number of ReadReq MSHR miss cycles
system.cpu.dcache.ReadReq_mshr_miss_rate::.switch_cpus.data     0.050570                       # mshr miss rate for ReadReq accesses
system.cpu.dcache.ReadReq_mshr_miss_rate::.switch_cpus_1.data     0.031246                       # mshr miss rate for ReadReq accesses
system.cpu.dcache.ReadReq_mshr_miss_rate::total     0.046098                       # mshr miss rate for ReadReq accesses
system.cpu.dcache.ReadReq_avg_mshr_miss_latency::.switch_cpus.data 76295.617816                       # average ReadReq mshr miss latency
system.cpu.dcache.ReadReq_avg_mshr_miss_latency::.switch_cpus_1.data 77191.119691                       # average ReadReq mshr miss latency
system.cpu.dcache.ReadReq_avg_mshr_miss_latency::total 76436.099334                       # average ReadReq mshr miss latency
system.cpu.dcache.WriteReq_hits::.switch_cpus.data        10615                       # number of WriteReq hits
system.cpu.dcache.WriteReq_hits::.switch_cpus_1.data           83                       # number of WriteReq hits
system.cpu.dcache.WriteReq_hits::total          10698                       # number of WriteReq hits
system.cpu.dcache.WriteReq_misses::.switch_cpus.data          533                       # number of WriteReq misses
system.cpu.dcache.WriteReq_misses::.switch_cpus_1.data            7                       # number of WriteReq misses
system.cpu.dcache.WriteReq_misses::total          540                       # number of WriteReq misses
system.cpu.dcache.WriteReq_miss_latency::.switch_cpus.data     44692000                       # number of WriteReq miss cycles
system.cpu.dcache.WriteReq_miss_latency::.switch_cpus_1.data        49000                       # number of WriteReq miss cycles
system.cpu.dcache.WriteReq_miss_latency::total     44741000                       # number of WriteReq miss cycles
system.cpu.dcache.WriteReq_accesses::.switch_cpus.data        11148                       # number of WriteReq accesses(hits+misses)
system.cpu.dcache.WriteReq_accesses::.switch_cpus_1.data           90                       # number of WriteReq accesses(hits+misses)
system.cpu.dcache.WriteReq_accesses::total        11238                       # number of WriteReq accesses(hits+misses)
system.cpu.dcache.WriteReq_miss_rate::.switch_cpus.data     0.047811                       # miss rate for WriteReq accesses
system.cpu.dcache.WriteReq_miss_rate::.switch_cpus_1.data     0.077778                       # miss rate for WriteReq accesses
system.cpu.dcache.WriteReq_miss_rate::total     0.048051                       # miss rate for WriteReq accesses
system.cpu.dcache.WriteReq_avg_miss_latency::.switch_cpus.data 83849.906191                       # average WriteReq miss latency
system.cpu.dcache.WriteReq_avg_miss_latency::.switch_cpus_1.data         7000                       # average WriteReq miss latency
system.cpu.dcache.WriteReq_avg_miss_latency::total 82853.703704                       # average WriteReq miss latency
system.cpu.dcache.WriteReq_mshr_hits::.switch_cpus_1.data            1                       # number of WriteReq MSHR hits
system.cpu.dcache.WriteReq_mshr_hits::total            1                       # number of WriteReq MSHR hits
system.cpu.dcache.WriteReq_mshr_misses::.switch_cpus.data          533                       # number of WriteReq MSHR misses
system.cpu.dcache.WriteReq_mshr_misses::.switch_cpus_1.data            6                       # number of WriteReq MSHR misses
system.cpu.dcache.WriteReq_mshr_misses::total          539                       # number of WriteReq MSHR misses
system.cpu.dcache.WriteReq_mshr_miss_latency::.switch_cpus.data     44425500                       # number of WriteReq MSHR miss cycles
system.cpu.dcache.WriteReq_mshr_miss_latency::.switch_cpus_1.data        40000                       # number of WriteReq MSHR miss cycles
system.cpu.dcache.WriteReq_mshr_miss_latency::total     44465500                       # number of WriteReq MSHR miss cycles
system.cpu.dcache.WriteReq_mshr_miss_rate::.switch_cpus.data     0.047811                       # mshr miss rate for WriteReq accesses
system.cpu.dcache.WriteReq_mshr_miss_rate::.switch_cpus_1.data     0.066667                       # mshr miss rate for WriteReq accesses
system.cpu.dcache.WriteReq_mshr_miss_rate::total     0.047962                       # mshr miss rate for WriteReq accesses
system.cpu.dcache.WriteReq_avg_mshr_miss_latency::.switch_cpus.data 83349.906191                       # average WriteReq mshr miss latency
system.cpu.dcache.WriteReq_avg_mshr_miss_latency::.switch_cpus_1.data  6666.666667                       # average WriteReq mshr miss latency
system.cpu.dcache.WriteReq_avg_mshr_miss_latency::total 82496.289425                       # average WriteReq mshr miss latency
system.cpu.dcache.power_state.pwrStateResidencyTicks::UNDEFINED    333066000                       # Cumulative time (in ticks) in various power states
system.cpu.dcache.tags.tagsinuse           422.227135                       # Cycle average of tags in use
system.cpu.dcache.tags.total_refs               45014                       # Total number of references to valid blocks.
system.cpu.dcache.tags.sampled_refs              2189                       # Sample count of references to valid blocks.
system.cpu.dcache.tags.avg_refs             20.563728                       # Average number of references to valid blocks.
system.cpu.dcache.tags.warmup_cycle            153000                       # Cycle when the warmup percentage was hit.
system.cpu.dcache.tags.occ_blocks::.switch_cpus.data   414.579120                       # Average occupied blocks per requestor
system.cpu.dcache.tags.occ_blocks::.switch_cpus_1.data     7.648015                       # Average occupied blocks per requestor
system.cpu.dcache.tags.occ_percent::.switch_cpus.data     0.809725                       # Average percentage of cache occupancy
system.cpu.dcache.tags.occ_percent::.switch_cpus_1.data     0.014938                       # Average percentage of cache occupancy
system.cpu.dcache.tags.occ_percent::total     0.824662                       # Average percentage of cache occupancy
system.cpu.dcache.tags.occ_task_id_blocks::1024          512                       # Occupied blocks per task id
system.cpu.dcache.tags.age_task_id_blocks_1024::0          145                       # Occupied blocks per task id
system.cpu.dcache.tags.age_task_id_blocks_1024::1          273                       # Occupied blocks per task id
system.cpu.dcache.tags.age_task_id_blocks_1024::2           94                       # Occupied blocks per task id
system.cpu.dcache.tags.occ_task_id_percent::1024            1                       # Percentage of cache occupancy per task id
system.cpu.dcache.tags.tag_accesses            190401                       # Number of tag accesses
system.cpu.dcache.tags.data_accesses           190401                       # Number of data accesses
system.cpu.dcache.tags.cache_friendly               0                       # Number of cache friendly accesses
system.cpu.dcache.tags.cache_averse             45014                       # Number of cache averse accesses
system.cpu.dcache.tags.cache_friendly_victims            0                       # Number of cache friendly victims
system.cpu.dcache.tags.cache_averse_victims         2189                       # Number of cache averse victims
system.cpu.dcache.tags.OPT_hits                     0                       # Number of OPT hits
system.cpu.dcache.tags.OPT_misses                   0                       # Number of OPT misses
system.cpu.dcache.tags.OPT_nan                  47053                       # Number of OPT nan
system.cpu.dcache.tags.power_state.pwrStateResidencyTicks::UNDEFINED    333066000                       # Cumulative time (in ticks) in various power states
system.cpu.power_state.numTransitions               2                       # Number of power state transitions
system.cpu.power_state.pwrStateResidencyTicks::OFF    333066000                       # Cumulative time (in ticks) in various power states

---------- End Simulation Statistics   ----------
