
---------- Begin Simulation Statistics ----------
final_tick                               1527301552500                       # Number of ticks from beginning of simulation (restored from checkpoints and never reset)
host_inst_rate                                 510909                       # Simulator instruction rate (inst/s)
host_mem_usage                                 803652                       # Number of bytes of host memory used
host_op_rate                                   965557                       # Simulator op (including micro ops) rate (op/s)
host_seconds                                  4110.32                       # Real time elapsed on the host
host_tick_rate                               73122117                       # Simulator tick rate (ticks/s)
sim_freq                                 1000000000000                       # Frequency of simulated ticks
sim_insts                                  2100000002                       # Number of instructions simulated
sim_ops                                    3968750663                       # Number of ops (including micro ops) simulated
sim_seconds                                  0.300555                       # Number of seconds simulated
sim_ticks                                300555418250                       # Number of ticks simulated
system.cpu.committedInsts                           0                       # Number of instructions committed
system.cpu.committedOps                             0                       # Number of ops (including micro ops) committed
system.cpu.dtb.rdAccesses                           0                       # TLB accesses on read requests
system.cpu.dtb.rdMisses                             0                       # TLB misses on read requests
system.cpu.dtb.wrAccesses                           0                       # TLB accesses on write requests
system.cpu.dtb.wrMisses                             0                       # TLB misses on write requests
system.cpu.idle_fraction                            0                       # Percentage of idle cycles
system.cpu.itb.rdAccesses                           0                       # TLB accesses on read requests
system.cpu.itb.rdMisses                             0                       # TLB misses on read requests
system.cpu.itb.wrAccesses                           0                       # TLB accesses on write requests
system.cpu.itb.wrMisses                             0                       # TLB misses on write requests
system.cpu.not_idle_fraction                        1                       # Percentage of non-idle cycles
system.cpu.numCycles                                0                       # number of cpu cycles simulated
system.cpu.numWorkItemsCompleted                    0                       # number of work items this cpu completed
system.cpu.numWorkItemsStarted                      0                       # number of work items this cpu started
system.cpu.num_busy_cycles                          0                       # Number of busy cycles
system.cpu.num_conditional_control_insts            0                       # number of instructions that are conditional controls
system.cpu.num_fp_alu_accesses                      0                       # Number of float alu accesses
system.cpu.num_fp_insts                             0                       # number of float instructions
system.cpu.num_fp_register_reads                    0                       # number of times the floating registers were read
system.cpu.num_fp_register_writes                   0                       # number of times the floating registers were written
system.cpu.num_func_calls                           0                       # number of times a function call or return occured
system.cpu.num_idle_cycles                          0                       # Number of idle cycles
system.cpu.num_int_alu_accesses                     0                       # Number of integer alu accesses
system.cpu.num_int_insts                            0                       # number of integer instructions
system.cpu.num_int_register_reads                   0                       # number of times the integer registers were read
system.cpu.num_int_register_writes                  0                       # number of times the integer registers were written
system.cpu.num_load_insts                           0                       # Number of load instructions
system.cpu.num_mem_refs                             0                       # number of memory refs
system.cpu.num_store_insts                          0                       # Number of store instructions
system.cpu.num_vec_alu_accesses                     0                       # Number of vector alu accesses
system.cpu.num_vec_insts                            0                       # number of vector instructions
system.cpu.num_vec_register_reads                   0                       # number of times the vector registers were read
system.cpu.num_vec_register_writes                  0                       # number of times the vector registers were written
system.cpu.op_class::No_OpClass                     0                       # Class of executed instruction
system.cpu.op_class::IntAlu                         0                       # Class of executed instruction
system.cpu.op_class::IntMult                        0                       # Class of executed instruction
system.cpu.op_class::IntDiv                         0                       # Class of executed instruction
system.cpu.op_class::FloatAdd                       0                       # Class of executed instruction
system.cpu.op_class::FloatCmp                       0                       # Class of executed instruction
system.cpu.op_class::FloatCvt                       0                       # Class of executed instruction
system.cpu.op_class::FloatMult                      0                       # Class of executed instruction
system.cpu.op_class::FloatMultAcc                   0                       # Class of executed instruction
system.cpu.op_class::FloatDiv                       0                       # Class of executed instruction
system.cpu.op_class::FloatMisc                      0                       # Class of executed instruction
system.cpu.op_class::FloatSqrt                      0                       # Class of executed instruction
system.cpu.op_class::SimdAdd                        0                       # Class of executed instruction
system.cpu.op_class::SimdAddAcc                     0                       # Class of executed instruction
system.cpu.op_class::SimdAlu                        0                       # Class of executed instruction
system.cpu.op_class::SimdCmp                        0                       # Class of executed instruction
system.cpu.op_class::SimdCvt                        0                       # Class of executed instruction
system.cpu.op_class::SimdMisc                       0                       # Class of executed instruction
system.cpu.op_class::SimdMult                       0                       # Class of executed instruction
system.cpu.op_class::SimdMultAcc                    0                       # Class of executed instruction
system.cpu.op_class::SimdShift                      0                       # Class of executed instruction
system.cpu.op_class::SimdShiftAcc                   0                       # Class of executed instruction
system.cpu.op_class::SimdDiv                        0                       # Class of executed instruction
system.cpu.op_class::SimdSqrt                       0                       # Class of executed instruction
system.cpu.op_class::SimdFloatAdd                   0                       # Class of executed instruction
system.cpu.op_class::SimdFloatAlu                   0                       # Class of executed instruction
system.cpu.op_class::SimdFloatCmp                   0                       # Class of executed instruction
system.cpu.op_class::SimdFloatCvt                   0                       # Class of executed instruction
system.cpu.op_class::SimdFloatDiv                   0                       # Class of executed instruction
system.cpu.op_class::SimdFloatMisc                  0                       # Class of executed instruction
system.cpu.op_class::SimdFloatMult                  0                       # Class of executed instruction
system.cpu.op_class::SimdFloatMultAcc               0                       # Class of executed instruction
system.cpu.op_class::SimdFloatSqrt                  0                       # Class of executed instruction
system.cpu.op_class::SimdReduceAdd                  0                       # Class of executed instruction
system.cpu.op_class::SimdReduceAlu                  0                       # Class of executed instruction
system.cpu.op_class::SimdReduceCmp                  0                       # Class of executed instruction
system.cpu.op_class::SimdFloatReduceAdd             0                       # Class of executed instruction
system.cpu.op_class::SimdFloatReduceCmp             0                       # Class of executed instruction
system.cpu.op_class::SimdAes                        0                       # Class of executed instruction
system.cpu.op_class::SimdAesMix                     0                       # Class of executed instruction
system.cpu.op_class::SimdSha1Hash                   0                       # Class of executed instruction
system.cpu.op_class::SimdSha1Hash2                  0                       # Class of executed instruction
system.cpu.op_class::SimdSha256Hash                 0                       # Class of executed instruction
system.cpu.op_class::SimdSha256Hash2                0                       # Class of executed instruction
system.cpu.op_class::SimdShaSigma2                  0                       # Class of executed instruction
system.cpu.op_class::SimdShaSigma3                  0                       # Class of executed instruction
system.cpu.op_class::SimdPredAlu                    0                       # Class of executed instruction
system.cpu.op_class::MemRead                        0                       # Class of executed instruction
system.cpu.op_class::MemWrite                       0                       # Class of executed instruction
system.cpu.op_class::FloatMemRead                   0                       # Class of executed instruction
system.cpu.op_class::FloatMemWrite                  0                       # Class of executed instruction
system.cpu.op_class::IprAccess                      0                       # Class of executed instruction
system.cpu.op_class::InstPrefetch                   0                       # Class of executed instruction
system.cpu.op_class::total                          0                       # Class of executed instruction
system.cpu.workload.numSyscalls                   478                       # Number of system calls
system.membus.snoop_filter.hit_multi_requests            0                       # Number of requests hitting in the snoop filter with multiple (>1) holders of the requested data.
system.membus.snoop_filter.hit_multi_snoops            0                       # Number of snoops hitting in the snoop filter with multiple (>1) holders of the requested data.
system.membus.snoop_filter.hit_single_requests      1034962                       # Number of requests hitting in the snoop filter with a single holder of the requested data.
system.membus.snoop_filter.hit_single_snoops            0                       # Number of snoops hitting in the snoop filter with a single holder of the requested data.
system.membus.snoop_filter.tot_requests       2070287                       # Total number of requests made to the snoop filter.
system.membus.snoop_filter.tot_snoops               0                       # Total number of snoops made to the snoop filter.
system.switch_cpus.committedInsts                   0                       # Number of instructions committed
system.switch_cpus.committedOps                     0                       # Number of ops (including micro ops) committed
system.switch_cpus.dtb.rdAccesses                   0                       # TLB accesses on read requests
system.switch_cpus.dtb.rdMisses                     0                       # TLB misses on read requests
system.switch_cpus.dtb.wrAccesses                   0                       # TLB accesses on write requests
system.switch_cpus.dtb.wrMisses                     0                       # TLB misses on write requests
system.switch_cpus.idle_fraction                    0                       # Percentage of idle cycles
system.switch_cpus.itb.rdAccesses                   0                       # TLB accesses on read requests
system.switch_cpus.itb.rdMisses                     0                       # TLB misses on read requests
system.switch_cpus.itb.wrAccesses                   0                       # TLB accesses on write requests
system.switch_cpus.itb.wrMisses                     0                       # TLB misses on write requests
system.switch_cpus.not_idle_fraction                1                       # Percentage of non-idle cycles
system.switch_cpus.numCycles                        0                       # number of cpu cycles simulated
system.switch_cpus.numWorkItemsCompleted            0                       # number of work items this cpu completed
system.switch_cpus.numWorkItemsStarted              0                       # number of work items this cpu started
system.switch_cpus.num_busy_cycles                  0                       # Number of busy cycles
system.switch_cpus.num_conditional_control_insts            0                       # number of instructions that are conditional controls
system.switch_cpus.num_fp_alu_accesses              0                       # Number of float alu accesses
system.switch_cpus.num_fp_insts                     0                       # number of float instructions
system.switch_cpus.num_fp_register_reads            0                       # number of times the floating registers were read
system.switch_cpus.num_fp_register_writes            0                       # number of times the floating registers were written
system.switch_cpus.num_func_calls                   0                       # number of times a function call or return occured
system.switch_cpus.num_idle_cycles                  0                       # Number of idle cycles
system.switch_cpus.num_int_alu_accesses             0                       # Number of integer alu accesses
system.switch_cpus.num_int_insts                    0                       # number of integer instructions
system.switch_cpus.num_int_register_reads            0                       # number of times the integer registers were read
system.switch_cpus.num_int_register_writes            0                       # number of times the integer registers were written
system.switch_cpus.num_load_insts                   0                       # Number of load instructions
system.switch_cpus.num_mem_refs                     0                       # number of memory refs
system.switch_cpus.num_store_insts                  0                       # Number of store instructions
system.switch_cpus.num_vec_alu_accesses             0                       # Number of vector alu accesses
system.switch_cpus.num_vec_insts                    0                       # number of vector instructions
system.switch_cpus.num_vec_register_reads            0                       # number of times the vector registers were read
system.switch_cpus.num_vec_register_writes            0                       # number of times the vector registers were written
system.switch_cpus.op_class::No_OpClass             0                       # Class of executed instruction
system.switch_cpus.op_class::IntAlu                 0                       # Class of executed instruction
system.switch_cpus.op_class::IntMult                0                       # Class of executed instruction
system.switch_cpus.op_class::IntDiv                 0                       # Class of executed instruction
system.switch_cpus.op_class::FloatAdd               0                       # Class of executed instruction
system.switch_cpus.op_class::FloatCmp               0                       # Class of executed instruction
system.switch_cpus.op_class::FloatCvt               0                       # Class of executed instruction
system.switch_cpus.op_class::FloatMult              0                       # Class of executed instruction
system.switch_cpus.op_class::FloatMultAcc            0                       # Class of executed instruction
system.switch_cpus.op_class::FloatDiv               0                       # Class of executed instruction
system.switch_cpus.op_class::FloatMisc              0                       # Class of executed instruction
system.switch_cpus.op_class::FloatSqrt              0                       # Class of executed instruction
system.switch_cpus.op_class::SimdAdd                0                       # Class of executed instruction
system.switch_cpus.op_class::SimdAddAcc             0                       # Class of executed instruction
system.switch_cpus.op_class::SimdAlu                0                       # Class of executed instruction
system.switch_cpus.op_class::SimdCmp                0                       # Class of executed instruction
system.switch_cpus.op_class::SimdCvt                0                       # Class of executed instruction
system.switch_cpus.op_class::SimdMisc               0                       # Class of executed instruction
system.switch_cpus.op_class::SimdMult               0                       # Class of executed instruction
system.switch_cpus.op_class::SimdMultAcc            0                       # Class of executed instruction
system.switch_cpus.op_class::SimdShift              0                       # Class of executed instruction
system.switch_cpus.op_class::SimdShiftAcc            0                       # Class of executed instruction
system.switch_cpus.op_class::SimdDiv                0                       # Class of executed instruction
system.switch_cpus.op_class::SimdSqrt               0                       # Class of executed instruction
system.switch_cpus.op_class::SimdFloatAdd            0                       # Class of executed instruction
system.switch_cpus.op_class::SimdFloatAlu            0                       # Class of executed instruction
system.switch_cpus.op_class::SimdFloatCmp            0                       # Class of executed instruction
system.switch_cpus.op_class::SimdFloatCvt            0                       # Class of executed instruction
system.switch_cpus.op_class::SimdFloatDiv            0                       # Class of executed instruction
system.switch_cpus.op_class::SimdFloatMisc            0                       # Class of executed instruction
system.switch_cpus.op_class::SimdFloatMult            0                       # Class of executed instruction
system.switch_cpus.op_class::SimdFloatMultAcc            0                       # Class of executed instruction
system.switch_cpus.op_class::SimdFloatSqrt            0                       # Class of executed instruction
system.switch_cpus.op_class::SimdReduceAdd            0                       # Class of executed instruction
system.switch_cpus.op_class::SimdReduceAlu            0                       # Class of executed instruction
system.switch_cpus.op_class::SimdReduceCmp            0                       # Class of executed instruction
system.switch_cpus.op_class::SimdFloatReduceAdd            0                       # Class of executed instruction
system.switch_cpus.op_class::SimdFloatReduceCmp            0                       # Class of executed instruction
system.switch_cpus.op_class::SimdAes                0                       # Class of executed instruction
system.switch_cpus.op_class::SimdAesMix             0                       # Class of executed instruction
system.switch_cpus.op_class::SimdSha1Hash            0                       # Class of executed instruction
system.switch_cpus.op_class::SimdSha1Hash2            0                       # Class of executed instruction
system.switch_cpus.op_class::SimdSha256Hash            0                       # Class of executed instruction
system.switch_cpus.op_class::SimdSha256Hash2            0                       # Class of executed instruction
system.switch_cpus.op_class::SimdShaSigma2            0                       # Class of executed instruction
system.switch_cpus.op_class::SimdShaSigma3            0                       # Class of executed instruction
system.switch_cpus.op_class::SimdPredAlu            0                       # Class of executed instruction
system.switch_cpus.op_class::MemRead                0                       # Class of executed instruction
system.switch_cpus.op_class::MemWrite               0                       # Class of executed instruction
system.switch_cpus.op_class::FloatMemRead            0                       # Class of executed instruction
system.switch_cpus.op_class::FloatMemWrite            0                       # Class of executed instruction
system.switch_cpus.op_class::IprAccess              0                       # Class of executed instruction
system.switch_cpus.op_class::InstPrefetch            0                       # Class of executed instruction
system.switch_cpus.op_class::total                  0                       # Class of executed instruction
system.switch_cpus_1.branchPred.BTBCorrect            0                       # Number of correct BTB predictions (this stat may not work properly.
system.switch_cpus_1.branchPred.BTBHitPct          nan                       # BTB Hit Percentage
system.switch_cpus_1.branchPred.BTBHits             0                       # Number of BTB hits
system.switch_cpus_1.branchPred.BTBLookups            0                       # Number of BTB lookups
system.switch_cpus_1.branchPred.RASInCorrect           34                       # Number of incorrect RAS predictions.
system.switch_cpus_1.branchPred.condIncorrect      8614123                       # Number of conditional branches incorrect
system.switch_cpus_1.branchPred.condPredicted    202569370                       # Number of conditional branches predicted
system.switch_cpus_1.branchPred.indirectHits     87269870                       # Number of indirect target hits.
system.switch_cpus_1.branchPred.indirectLookups    109656663                       # Number of indirect predictor lookups.
system.switch_cpus_1.branchPred.indirectMisses     22386793                       # Number of indirect misses.
system.switch_cpus_1.branchPred.lookups     231242356                       # Number of BP lookups
system.switch_cpus_1.branchPred.usedRAS      13259844                       # Number of times the RAS was used to get a target.
system.switch_cpus_1.branchPredindirectMispredicted      6045943                       # Number of mispredicted indirect branches.
system.switch_cpus_1.cc_regfile_reads       933250934                       # number of cc regfile reads
system.switch_cpus_1.cc_regfile_writes      565442877                       # number of cc regfile writes
system.switch_cpus_1.commit.amos                    0                       # Number of atomic instructions committed
system.switch_cpus_1.commit.branchMispredicts      8616607                       # The number of times a branch was mispredicted
system.switch_cpus_1.commit.branches        171743663                       # Number of branches committed
system.switch_cpus_1.commit.bw_lim_events    152505384                       # number cycles where commit BW limit reached
system.switch_cpus_1.commit.commitNonSpecStalls         6242                       # The number of times commit has been forced to stall to communicate backwards
system.switch_cpus_1.commit.commitSquashedInsts    375123515                       # The number of squashed insts skipped by commit
system.switch_cpus_1.commit.committedInsts   1000000000                       # Number of instructions committed
system.switch_cpus_1.commit.committedOps   1872566046                       # Number of ops (including micro ops) committed
system.switch_cpus_1.commit.committed_per_cycle::samples    548117289                       # Number of insts commited each cycle
system.switch_cpus_1.commit.committed_per_cycle::mean     3.416360                       # Number of insts commited each cycle
system.switch_cpus_1.commit.committed_per_cycle::stdev     3.332280                       # Number of insts commited each cycle
system.switch_cpus_1.commit.committed_per_cycle::underflows            0      0.00%      0.00% # Number of insts commited each cycle
system.switch_cpus_1.commit.committed_per_cycle::0    181505299     33.11%     33.11% # Number of insts commited each cycle
system.switch_cpus_1.commit.committed_per_cycle::1     59903091     10.93%     44.04% # Number of insts commited each cycle
system.switch_cpus_1.commit.committed_per_cycle::2     37822342      6.90%     50.94% # Number of insts commited each cycle
system.switch_cpus_1.commit.committed_per_cycle::3     41794028      7.63%     58.57% # Number of insts commited each cycle
system.switch_cpus_1.commit.committed_per_cycle::4     20942120      3.82%     62.39% # Number of insts commited each cycle
system.switch_cpus_1.commit.committed_per_cycle::5     26158634      4.77%     67.16% # Number of insts commited each cycle
system.switch_cpus_1.commit.committed_per_cycle::6     15373272      2.80%     69.97% # Number of insts commited each cycle
system.switch_cpus_1.commit.committed_per_cycle::7     12113119      2.21%     72.18% # Number of insts commited each cycle
system.switch_cpus_1.commit.committed_per_cycle::8    152505384     27.82%    100.00% # Number of insts commited each cycle
system.switch_cpus_1.commit.committed_per_cycle::overflows            0      0.00%    100.00% # Number of insts commited each cycle
system.switch_cpus_1.commit.committed_per_cycle::min_value            0                       # Number of insts commited each cycle
system.switch_cpus_1.commit.committed_per_cycle::max_value            8                       # Number of insts commited each cycle
system.switch_cpus_1.commit.committed_per_cycle::total    548117289                       # Number of insts commited each cycle
system.switch_cpus_1.commit.fp_insts        353215384                       # Number of committed floating point instructions.
system.switch_cpus_1.commit.function_calls      9265651                       # Number of function calls committed.
system.switch_cpus_1.commit.int_insts      1600442758                       # Number of committed integer instructions.
system.switch_cpus_1.commit.loads           238523105                       # Number of loads committed
system.switch_cpus_1.commit.membars               108                       # Number of memory barriers committed
system.switch_cpus_1.commit.op_class_0::No_OpClass      4148588      0.22%      0.22% # Class of committed instruction
system.switch_cpus_1.commit.op_class_0::IntAlu   1289330592     68.85%     69.08% # Class of committed instruction
system.switch_cpus_1.commit.op_class_0::IntMult      1075496      0.06%     69.13% # Class of committed instruction
system.switch_cpus_1.commit.op_class_0::IntDiv      6341911      0.34%     69.47% # Class of committed instruction
system.switch_cpus_1.commit.op_class_0::FloatAdd     43161488      2.30%     71.78% # Class of committed instruction
system.switch_cpus_1.commit.op_class_0::FloatCmp            0      0.00%     71.78% # Class of committed instruction
system.switch_cpus_1.commit.op_class_0::FloatCvt          112      0.00%     71.78% # Class of committed instruction
system.switch_cpus_1.commit.op_class_0::FloatMult            0      0.00%     71.78% # Class of committed instruction
system.switch_cpus_1.commit.op_class_0::FloatMultAcc            0      0.00%     71.78% # Class of committed instruction
system.switch_cpus_1.commit.op_class_0::FloatDiv            0      0.00%     71.78% # Class of committed instruction
system.switch_cpus_1.commit.op_class_0::FloatMisc            0      0.00%     71.78% # Class of committed instruction
system.switch_cpus_1.commit.op_class_0::FloatSqrt            0      0.00%     71.78% # Class of committed instruction
system.switch_cpus_1.commit.op_class_0::SimdAdd           98      0.00%     71.78% # Class of committed instruction
system.switch_cpus_1.commit.op_class_0::SimdAddAcc            0      0.00%     71.78% # Class of committed instruction
system.switch_cpus_1.commit.op_class_0::SimdAlu     37520476      2.00%     73.78% # Class of committed instruction
system.switch_cpus_1.commit.op_class_0::SimdCmp       785328      0.04%     73.82% # Class of committed instruction
system.switch_cpus_1.commit.op_class_0::SimdCvt      4519604      0.24%     74.06% # Class of committed instruction
system.switch_cpus_1.commit.op_class_0::SimdMisc     20653471      1.10%     75.17% # Class of committed instruction
system.switch_cpus_1.commit.op_class_0::SimdMult            0      0.00%     75.17% # Class of committed instruction
system.switch_cpus_1.commit.op_class_0::SimdMultAcc            0      0.00%     75.17% # Class of committed instruction
system.switch_cpus_1.commit.op_class_0::SimdShift           49      0.00%     75.17% # Class of committed instruction
system.switch_cpus_1.commit.op_class_0::SimdShiftAcc            0      0.00%     75.17% # Class of committed instruction
system.switch_cpus_1.commit.op_class_0::SimdDiv            0      0.00%     75.17% # Class of committed instruction
system.switch_cpus_1.commit.op_class_0::SimdSqrt            0      0.00%     75.17% # Class of committed instruction
system.switch_cpus_1.commit.op_class_0::SimdFloatAdd     49302762      2.63%     77.80% # Class of committed instruction
system.switch_cpus_1.commit.op_class_0::SimdFloatAlu            0      0.00%     77.80% # Class of committed instruction
system.switch_cpus_1.commit.op_class_0::SimdFloatCmp            0      0.00%     77.80% # Class of committed instruction
system.switch_cpus_1.commit.op_class_0::SimdFloatCvt     35917538      1.92%     79.72% # Class of committed instruction
system.switch_cpus_1.commit.op_class_0::SimdFloatDiv      1922135      0.10%     79.82% # Class of committed instruction
system.switch_cpus_1.commit.op_class_0::SimdFloatMisc            0      0.00%     79.82% # Class of committed instruction
system.switch_cpus_1.commit.op_class_0::SimdFloatMult     22831089      1.22%     81.04% # Class of committed instruction
system.switch_cpus_1.commit.op_class_0::SimdFloatMultAcc            0      0.00%     81.04% # Class of committed instruction
system.switch_cpus_1.commit.op_class_0::SimdFloatSqrt            0      0.00%     81.04% # Class of committed instruction
system.switch_cpus_1.commit.op_class_0::SimdReduceAdd            0      0.00%     81.04% # Class of committed instruction
system.switch_cpus_1.commit.op_class_0::SimdReduceAlu            0      0.00%     81.04% # Class of committed instruction
system.switch_cpus_1.commit.op_class_0::SimdReduceCmp            0      0.00%     81.04% # Class of committed instruction
system.switch_cpus_1.commit.op_class_0::SimdFloatReduceAdd            0      0.00%     81.04% # Class of committed instruction
system.switch_cpus_1.commit.op_class_0::SimdFloatReduceCmp            0      0.00%     81.04% # Class of committed instruction
system.switch_cpus_1.commit.op_class_0::SimdAes            0      0.00%     81.04% # Class of committed instruction
system.switch_cpus_1.commit.op_class_0::SimdAesMix            0      0.00%     81.04% # Class of committed instruction
system.switch_cpus_1.commit.op_class_0::SimdSha1Hash            0      0.00%     81.04% # Class of committed instruction
system.switch_cpus_1.commit.op_class_0::SimdSha1Hash2            0      0.00%     81.04% # Class of committed instruction
system.switch_cpus_1.commit.op_class_0::SimdSha256Hash            0      0.00%     81.04% # Class of committed instruction
system.switch_cpus_1.commit.op_class_0::SimdSha256Hash2            0      0.00%     81.04% # Class of committed instruction
system.switch_cpus_1.commit.op_class_0::SimdShaSigma2            0      0.00%     81.04% # Class of committed instruction
system.switch_cpus_1.commit.op_class_0::SimdShaSigma3            0      0.00%     81.04% # Class of committed instruction
system.switch_cpus_1.commit.op_class_0::SimdPredAlu            0      0.00%     81.04% # Class of committed instruction
system.switch_cpus_1.commit.op_class_0::MemRead    180281745      9.63%     90.67% # Class of committed instruction
system.switch_cpus_1.commit.op_class_0::MemWrite    107339072      5.73%     96.40% # Class of committed instruction
system.switch_cpus_1.commit.op_class_0::FloatMemRead     58241360      3.11%     99.51% # Class of committed instruction
system.switch_cpus_1.commit.op_class_0::FloatMemWrite      9193132      0.49%    100.00% # Class of committed instruction
system.switch_cpus_1.commit.op_class_0::IprAccess            0      0.00%    100.00% # Class of committed instruction
system.switch_cpus_1.commit.op_class_0::InstPrefetch            0      0.00%    100.00% # Class of committed instruction
system.switch_cpus_1.commit.op_class_0::total   1872566046                       # Class of committed instruction
system.switch_cpus_1.commit.refs            355055309                       # Number of memory references committed
system.switch_cpus_1.commit.swp_count               0                       # Number of s/w prefetches committed
system.switch_cpus_1.commit.vec_insts               0                       # Number of committed Vector instructions.
system.switch_cpus_1.committedInsts        1000000000                       # Number of Instructions Simulated
system.switch_cpus_1.committedOps          1872566046                       # Number of Ops (including micro ops) Simulated
system.switch_cpus_1.cpi                     0.601111                       # CPI: Cycles Per Instruction
system.switch_cpus_1.cpi_total               0.601111                       # CPI: Total CPI of All Threads
system.switch_cpus_1.decode.BlockedCycles    195745193                       # Number of cycles decode is blocked
system.switch_cpus_1.decode.DecodedInsts   2404751481                       # Number of instructions handled by decode
system.switch_cpus_1.decode.IdleCycles       53910341                       # Number of cycles decode is idle
system.switch_cpus_1.decode.RunCycles       296009501                       # Number of cycles decode is running
system.switch_cpus_1.decode.SquashCycles      8721639                       # Number of cycles decode is squashing
system.switch_cpus_1.decode.UnblockCycles     46463237                       # Number of cycles decode is unblocking
system.switch_cpus_1.dtb.rdAccesses         266760044                       # TLB accesses on read requests
system.switch_cpus_1.dtb.rdMisses              617738                       # TLB misses on read requests
system.switch_cpus_1.dtb.wrAccesses         128053897                       # TLB accesses on write requests
system.switch_cpus_1.dtb.wrMisses              356086                       # TLB misses on write requests
system.switch_cpus_1.fetch.Branches         231242356                       # Number of branches that fetch encountered
system.switch_cpus_1.fetch.CacheLines       181071959                       # Number of cache lines fetched
system.switch_cpus_1.fetch.Cycles           572867287                       # Number of cycles fetch has run and was not squashing or blocked
system.switch_cpus_1.fetch.IcacheSquashes       326722                       # Number of outstanding Icache misses that were squashed
system.switch_cpus_1.fetch.IcacheWaitRetryStallCycles          950                       # Number of stall cycles due to full MSHR
system.switch_cpus_1.fetch.Insts           1351231197                       # Number of instructions fetch has processed
system.switch_cpus_1.fetch.MiscStallCycles         8066                       # Number of cycles fetch has spent waiting on interrupts, or bad addresses, or out of MSHRs
system.switch_cpus_1.fetch.PendingTrapStallCycles        40725                       # Number of stall cycles due to pending traps
system.switch_cpus_1.fetch.SquashCycles      17443278                       # Number of cycles fetch has spent squashing
system.switch_cpus_1.fetch.branchRate        0.384692                       # Number of branch fetches per cycle
system.switch_cpus_1.fetch.icacheStallCycles     19211252                       # Number of cycles fetch is stalled on an Icache miss
system.switch_cpus_1.fetch.predictedBranches    100529714                       # Number of branches that fetch has predicted taken
system.switch_cpus_1.fetch.rate              2.247890                       # Number of inst fetches per cycle
system.switch_cpus_1.fetch.rateDist::samples    600849919                       # Number of instructions fetched each cycle (Total)
system.switch_cpus_1.fetch.rateDist::mean     4.215269                       # Number of instructions fetched each cycle (Total)
system.switch_cpus_1.fetch.rateDist::stdev     3.511230                       # Number of instructions fetched each cycle (Total)
system.switch_cpus_1.fetch.rateDist::underflows            0      0.00%      0.00% # Number of instructions fetched each cycle (Total)
system.switch_cpus_1.fetch.rateDist::0      189206247     31.49%     31.49% # Number of instructions fetched each cycle (Total)
system.switch_cpus_1.fetch.rateDist::1       33596422      5.59%     37.08% # Number of instructions fetched each cycle (Total)
system.switch_cpus_1.fetch.rateDist::2       16670986      2.77%     39.86% # Number of instructions fetched each cycle (Total)
system.switch_cpus_1.fetch.rateDist::3       35132684      5.85%     45.70% # Number of instructions fetched each cycle (Total)
system.switch_cpus_1.fetch.rateDist::4       28576568      4.76%     50.46% # Number of instructions fetched each cycle (Total)
system.switch_cpus_1.fetch.rateDist::5       24123442      4.01%     54.47% # Number of instructions fetched each cycle (Total)
system.switch_cpus_1.fetch.rateDist::6       21653995      3.60%     58.08% # Number of instructions fetched each cycle (Total)
system.switch_cpus_1.fetch.rateDist::7       19556173      3.25%     61.33% # Number of instructions fetched each cycle (Total)
system.switch_cpus_1.fetch.rateDist::8      232333402     38.67%    100.00% # Number of instructions fetched each cycle (Total)
system.switch_cpus_1.fetch.rateDist::overflows            0      0.00%    100.00% # Number of instructions fetched each cycle (Total)
system.switch_cpus_1.fetch.rateDist::min_value            0                       # Number of instructions fetched each cycle (Total)
system.switch_cpus_1.fetch.rateDist::max_value            8                       # Number of instructions fetched each cycle (Total)
system.switch_cpus_1.fetch.rateDist::total    600849919                       # Number of instructions fetched each cycle (Total)
system.switch_cpus_1.fp_regfile_reads       597790034                       # number of floating regfile reads
system.switch_cpus_1.fp_regfile_writes      353819571                       # number of floating regfile writes
system.switch_cpus_1.idleCycles                260917                       # Total number of cycles that the CPU has spent unscheduled due to idling
system.switch_cpus_1.iew.branchMispredicts     11806687                       # Number of branch mispredicts detected at execute
system.switch_cpus_1.iew.exec_branches      183460386                       # Number of branches executed
system.switch_cpus_1.iew.exec_nop                   0                       # number of nop insts executed
system.switch_cpus_1.iew.exec_rate           3.460117                       # Inst execution rate
system.switch_cpus_1.iew.exec_refs          395520317                       # number of memory reference insts executed
system.switch_cpus_1.iew.exec_stores        128046387                       # Number of stores executed
system.switch_cpus_1.iew.exec_swp                   0                       # number of swp insts executed
system.switch_cpus_1.iew.iewBlockCycles      89077777                       # Number of cycles IEW is blocking
system.switch_cpus_1.iew.iewDispLoadInsts    288994910                       # Number of dispatched load instructions
system.switch_cpus_1.iew.iewDispNonSpecInsts       167832                       # Number of dispatched non-speculative instructions
system.switch_cpus_1.iew.iewDispSquashedInsts       216833                       # Number of squashed instructions skipped by dispatch
system.switch_cpus_1.iew.iewDispStoreInsts    142246407                       # Number of dispatched store instructions
system.switch_cpus_1.iew.iewDispatchedInsts   2253895832                       # Number of instructions dispatched to IQ
system.switch_cpus_1.iew.iewExecLoadInsts    267473930                       # Number of load instructions executed
system.switch_cpus_1.iew.iewExecSquashedInsts     20462712                       # Number of squashed instructions skipped in execute
system.switch_cpus_1.iew.iewExecutedInsts   2079913896                       # Number of executed instructions
system.switch_cpus_1.iew.iewIQFullEvents       257116                       # Number of times the IQ has become full, causing a stall
system.switch_cpus_1.iew.iewIdleCycles              0                       # Number of cycles IEW is idle
system.switch_cpus_1.iew.iewLSQFullEvents      1479594                       # Number of times the LSQ has become full, causing a stall
system.switch_cpus_1.iew.iewSquashCycles      8721639                       # Number of cycles IEW is squashing
system.switch_cpus_1.iew.iewUnblockCycles      2082122                       # Number of cycles IEW is unblocking
system.switch_cpus_1.iew.lsq.thread0.blockedLoads            0                       # Number of blocked loads due to partial load-store forwarding
system.switch_cpus_1.iew.lsq.thread0.cacheBlocked       211912                       # Number of times an access to memory failed due to the cache being blocked
system.switch_cpus_1.iew.lsq.thread0.forwLoads     22874360                       # Number of loads that had data forwarded from stores
system.switch_cpus_1.iew.lsq.thread0.ignoredResponses        58700                       # Number of memory responses ignored because the instruction is squashed
system.switch_cpus_1.iew.lsq.thread0.invAddrLoads            0                       # Number of loads ignored due to an invalid address
system.switch_cpus_1.iew.lsq.thread0.invAddrSwpfs            0                       # Number of software prefetches ignored due to an invalid address
system.switch_cpus_1.iew.lsq.thread0.memOrderViolation        19904                       # Number of memory ordering violations
system.switch_cpus_1.iew.lsq.thread0.rescheduledLoads         1661                       # Number of loads that were rescheduled
system.switch_cpus_1.iew.lsq.thread0.squashedLoads     50471801                       # Number of loads squashed
system.switch_cpus_1.iew.lsq.thread0.squashedStores     25714200                       # Number of stores squashed
system.switch_cpus_1.iew.memOrderViolationEvents        19904                       # Number of memory order violations
system.switch_cpus_1.iew.predictedNotTakenIncorrect     10745536                       # Number of branches that were predicted not taken incorrectly
system.switch_cpus_1.iew.predictedTakenIncorrect      1061151                       # Number of branches that were predicted taken incorrectly
system.switch_cpus_1.iew.wb_consumers      2602694175                       # num instructions consuming a value
system.switch_cpus_1.iew.wb_count          2072266812                       # cumulative count of insts written-back
system.switch_cpus_1.iew.wb_fanout           0.598965                       # average fanout of values written-back
system.switch_cpus_1.iew.wb_producers      1558923615                       # num instructions producing a value
system.switch_cpus_1.iew.wb_rate             3.447396                       # insts written-back per cycle
system.switch_cpus_1.iew.wb_sent           2078027226                       # cumulative count of insts sent to commit
system.switch_cpus_1.int_regfile_reads     2627048697                       # number of integer regfile reads
system.switch_cpus_1.int_regfile_writes    1407302616                       # number of integer regfile writes
system.switch_cpus_1.ipc                     1.663587                       # IPC: Instructions Per Cycle
system.switch_cpus_1.ipc_total               1.663587                       # IPC: Total IPC of All Threads
system.switch_cpus_1.iq.FU_type_0::No_OpClass      7059587      0.34%      0.34% # Type of FU issued
system.switch_cpus_1.iq.FU_type_0::IntAlu   1442557355     68.68%     69.02% # Type of FU issued
system.switch_cpus_1.iq.FU_type_0::IntMult      1143030      0.05%     69.07% # Type of FU issued
system.switch_cpus_1.iq.FU_type_0::IntDiv      6631800      0.32%     69.39% # Type of FU issued
system.switch_cpus_1.iq.FU_type_0::FloatAdd     51718257      2.46%     71.85% # Type of FU issued
system.switch_cpus_1.iq.FU_type_0::FloatCmp            0      0.00%     71.85% # Type of FU issued
system.switch_cpus_1.iq.FU_type_0::FloatCvt          880      0.00%     71.85% # Type of FU issued
system.switch_cpus_1.iq.FU_type_0::FloatMult            0      0.00%     71.85% # Type of FU issued
system.switch_cpus_1.iq.FU_type_0::FloatMultAcc            0      0.00%     71.85% # Type of FU issued
system.switch_cpus_1.iq.FU_type_0::FloatDiv            0      0.00%     71.85% # Type of FU issued
system.switch_cpus_1.iq.FU_type_0::FloatMisc            0      0.00%     71.85% # Type of FU issued
system.switch_cpus_1.iq.FU_type_0::FloatSqrt            0      0.00%     71.85% # Type of FU issued
system.switch_cpus_1.iq.FU_type_0::SimdAdd          172      0.00%     71.85% # Type of FU issued
system.switch_cpus_1.iq.FU_type_0::SimdAddAcc            0      0.00%     71.85% # Type of FU issued
system.switch_cpus_1.iq.FU_type_0::SimdAlu     43955207      2.09%     73.94% # Type of FU issued
system.switch_cpus_1.iq.FU_type_0::SimdCmp       826936      0.04%     73.98% # Type of FU issued
system.switch_cpus_1.iq.FU_type_0::SimdCvt      5626532      0.27%     74.25% # Type of FU issued
system.switch_cpus_1.iq.FU_type_0::SimdMisc     23683502      1.13%     75.38% # Type of FU issued
system.switch_cpus_1.iq.FU_type_0::SimdMult            0      0.00%     75.38% # Type of FU issued
system.switch_cpus_1.iq.FU_type_0::SimdMultAcc            0      0.00%     75.38% # Type of FU issued
system.switch_cpus_1.iq.FU_type_0::SimdShift          135      0.00%     75.38% # Type of FU issued
system.switch_cpus_1.iq.FU_type_0::SimdShiftAcc            0      0.00%     75.38% # Type of FU issued
system.switch_cpus_1.iq.FU_type_0::SimdDiv            0      0.00%     75.38% # Type of FU issued
system.switch_cpus_1.iq.FU_type_0::SimdSqrt            0      0.00%     75.38% # Type of FU issued
system.switch_cpus_1.iq.FU_type_0::SimdFloatAdd     50540452      2.41%     77.78% # Type of FU issued
system.switch_cpus_1.iq.FU_type_0::SimdFloatAlu            0      0.00%     77.78% # Type of FU issued
system.switch_cpus_1.iq.FU_type_0::SimdFloatCmp            0      0.00%     77.78% # Type of FU issued
system.switch_cpus_1.iq.FU_type_0::SimdFloatCvt     36890211      1.76%     79.54% # Type of FU issued
system.switch_cpus_1.iq.FU_type_0::SimdFloatDiv      1922260      0.09%     79.63% # Type of FU issued
system.switch_cpus_1.iq.FU_type_0::SimdFloatMisc            0      0.00%     79.63% # Type of FU issued
system.switch_cpus_1.iq.FU_type_0::SimdFloatMult     24346371      1.16%     80.79% # Type of FU issued
system.switch_cpus_1.iq.FU_type_0::SimdFloatMultAcc            0      0.00%     80.79% # Type of FU issued
system.switch_cpus_1.iq.FU_type_0::SimdFloatSqrt            0      0.00%     80.79% # Type of FU issued
system.switch_cpus_1.iq.FU_type_0::SimdReduceAdd            0      0.00%     80.79% # Type of FU issued
system.switch_cpus_1.iq.FU_type_0::SimdReduceAlu            0      0.00%     80.79% # Type of FU issued
system.switch_cpus_1.iq.FU_type_0::SimdReduceCmp            0      0.00%     80.79% # Type of FU issued
system.switch_cpus_1.iq.FU_type_0::SimdFloatReduceAdd            0      0.00%     80.79% # Type of FU issued
system.switch_cpus_1.iq.FU_type_0::SimdFloatReduceCmp            0      0.00%     80.79% # Type of FU issued
system.switch_cpus_1.iq.FU_type_0::SimdAes            0      0.00%     80.79% # Type of FU issued
system.switch_cpus_1.iq.FU_type_0::SimdAesMix            0      0.00%     80.79% # Type of FU issued
system.switch_cpus_1.iq.FU_type_0::SimdSha1Hash            0      0.00%     80.79% # Type of FU issued
system.switch_cpus_1.iq.FU_type_0::SimdSha1Hash2            0      0.00%     80.79% # Type of FU issued
system.switch_cpus_1.iq.FU_type_0::SimdSha256Hash            0      0.00%     80.79% # Type of FU issued
system.switch_cpus_1.iq.FU_type_0::SimdSha256Hash2            0      0.00%     80.79% # Type of FU issued
system.switch_cpus_1.iq.FU_type_0::SimdShaSigma2            0      0.00%     80.79% # Type of FU issued
system.switch_cpus_1.iq.FU_type_0::SimdShaSigma3            0      0.00%     80.79% # Type of FU issued
system.switch_cpus_1.iq.FU_type_0::SimdPredAlu            0      0.00%     80.79% # Type of FU issued
system.switch_cpus_1.iq.FU_type_0::MemRead    203630845      9.69%     90.49% # Type of FU issued
system.switch_cpus_1.iq.FU_type_0::MemWrite    120427484      5.73%     96.22% # Type of FU issued
system.switch_cpus_1.iq.FU_type_0::FloatMemRead     68256923      3.25%     99.47% # Type of FU issued
system.switch_cpus_1.iq.FU_type_0::FloatMemWrite     11158674      0.53%    100.00% # Type of FU issued
system.switch_cpus_1.iq.FU_type_0::IprAccess            0      0.00%    100.00% # Type of FU issued
system.switch_cpus_1.iq.FU_type_0::InstPrefetch            0      0.00%    100.00% # Type of FU issued
system.switch_cpus_1.iq.FU_type_0::total   2100376613                       # Type of FU issued
system.switch_cpus_1.iq.fp_alu_accesses     396928222                       # Number of floating point alu accesses
system.switch_cpus_1.iq.fp_inst_queue_reads    791293787                       # Number of floating instruction queue reads
system.switch_cpus_1.iq.fp_inst_queue_wakeup_accesses    392205697                       # Number of floating instruction queue wakeup accesses
system.switch_cpus_1.iq.fp_inst_queue_writes    518909966                       # Number of floating instruction queue writes
system.switch_cpus_1.iq.fu_busy_cnt          53765105                       # FU busy when requested
system.switch_cpus_1.iq.fu_busy_rate         0.025598                       # FU busy rate (busy events/executed inst)
system.switch_cpus_1.iq.fu_full::No_OpClass            0      0.00%      0.00% # attempts to use FU when none available
system.switch_cpus_1.iq.fu_full::IntAlu      45646410     84.90%     84.90% # attempts to use FU when none available
system.switch_cpus_1.iq.fu_full::IntMult            0      0.00%     84.90% # attempts to use FU when none available
system.switch_cpus_1.iq.fu_full::IntDiv             0      0.00%     84.90% # attempts to use FU when none available
system.switch_cpus_1.iq.fu_full::FloatAdd            0      0.00%     84.90% # attempts to use FU when none available
system.switch_cpus_1.iq.fu_full::FloatCmp            0      0.00%     84.90% # attempts to use FU when none available
system.switch_cpus_1.iq.fu_full::FloatCvt            1      0.00%     84.90% # attempts to use FU when none available
system.switch_cpus_1.iq.fu_full::FloatMult            0      0.00%     84.90% # attempts to use FU when none available
system.switch_cpus_1.iq.fu_full::FloatMultAcc            0      0.00%     84.90% # attempts to use FU when none available
system.switch_cpus_1.iq.fu_full::FloatDiv            0      0.00%     84.90% # attempts to use FU when none available
system.switch_cpus_1.iq.fu_full::FloatMisc            0      0.00%     84.90% # attempts to use FU when none available
system.switch_cpus_1.iq.fu_full::FloatSqrt            0      0.00%     84.90% # attempts to use FU when none available
system.switch_cpus_1.iq.fu_full::SimdAdd            0      0.00%     84.90% # attempts to use FU when none available
system.switch_cpus_1.iq.fu_full::SimdAddAcc            0      0.00%     84.90% # attempts to use FU when none available
system.switch_cpus_1.iq.fu_full::SimdAlu       159300      0.30%     85.20% # attempts to use FU when none available
system.switch_cpus_1.iq.fu_full::SimdCmp        35494      0.07%     85.26% # attempts to use FU when none available
system.switch_cpus_1.iq.fu_full::SimdCvt       616590      1.15%     86.41% # attempts to use FU when none available
system.switch_cpus_1.iq.fu_full::SimdMisc       188281      0.35%     86.76% # attempts to use FU when none available
system.switch_cpus_1.iq.fu_full::SimdMult            0      0.00%     86.76% # attempts to use FU when none available
system.switch_cpus_1.iq.fu_full::SimdMultAcc            0      0.00%     86.76% # attempts to use FU when none available
system.switch_cpus_1.iq.fu_full::SimdShift            0      0.00%     86.76% # attempts to use FU when none available
system.switch_cpus_1.iq.fu_full::SimdShiftAcc            0      0.00%     86.76% # attempts to use FU when none available
system.switch_cpus_1.iq.fu_full::SimdDiv            0      0.00%     86.76% # attempts to use FU when none available
system.switch_cpus_1.iq.fu_full::SimdSqrt            0      0.00%     86.76% # attempts to use FU when none available
system.switch_cpus_1.iq.fu_full::SimdFloatAdd        27153      0.05%     86.81% # attempts to use FU when none available
system.switch_cpus_1.iq.fu_full::SimdFloatAlu            0      0.00%     86.81% # attempts to use FU when none available
system.switch_cpus_1.iq.fu_full::SimdFloatCmp            0      0.00%     86.81% # attempts to use FU when none available
system.switch_cpus_1.iq.fu_full::SimdFloatCvt       445517      0.83%     87.64% # attempts to use FU when none available
system.switch_cpus_1.iq.fu_full::SimdFloatDiv            0      0.00%     87.64% # attempts to use FU when none available
system.switch_cpus_1.iq.fu_full::SimdFloatMisc            0      0.00%     87.64% # attempts to use FU when none available
system.switch_cpus_1.iq.fu_full::SimdFloatMult         4359      0.01%     87.65% # attempts to use FU when none available
system.switch_cpus_1.iq.fu_full::SimdFloatMultAcc            0      0.00%     87.65% # attempts to use FU when none available
system.switch_cpus_1.iq.fu_full::SimdFloatSqrt            0      0.00%     87.65% # attempts to use FU when none available
system.switch_cpus_1.iq.fu_full::SimdReduceAdd            0      0.00%     87.65% # attempts to use FU when none available
system.switch_cpus_1.iq.fu_full::SimdReduceAlu            0      0.00%     87.65% # attempts to use FU when none available
system.switch_cpus_1.iq.fu_full::SimdReduceCmp            0      0.00%     87.65% # attempts to use FU when none available
system.switch_cpus_1.iq.fu_full::SimdFloatReduceAdd            0      0.00%     87.65% # attempts to use FU when none available
system.switch_cpus_1.iq.fu_full::SimdFloatReduceCmp            0      0.00%     87.65% # attempts to use FU when none available
system.switch_cpus_1.iq.fu_full::SimdAes            0      0.00%     87.65% # attempts to use FU when none available
system.switch_cpus_1.iq.fu_full::SimdAesMix            0      0.00%     87.65% # attempts to use FU when none available
system.switch_cpus_1.iq.fu_full::SimdSha1Hash            0      0.00%     87.65% # attempts to use FU when none available
system.switch_cpus_1.iq.fu_full::SimdSha1Hash2            0      0.00%     87.65% # attempts to use FU when none available
system.switch_cpus_1.iq.fu_full::SimdSha256Hash            0      0.00%     87.65% # attempts to use FU when none available
system.switch_cpus_1.iq.fu_full::SimdSha256Hash2            0      0.00%     87.65% # attempts to use FU when none available
system.switch_cpus_1.iq.fu_full::SimdShaSigma2            0      0.00%     87.65% # attempts to use FU when none available
system.switch_cpus_1.iq.fu_full::SimdShaSigma3            0      0.00%     87.65% # attempts to use FU when none available
system.switch_cpus_1.iq.fu_full::SimdPredAlu            0      0.00%     87.65% # attempts to use FU when none available
system.switch_cpus_1.iq.fu_full::MemRead      3214364      5.98%     93.62% # attempts to use FU when none available
system.switch_cpus_1.iq.fu_full::MemWrite      2151840      4.00%     97.63% # attempts to use FU when none available
system.switch_cpus_1.iq.fu_full::FloatMemRead       705660      1.31%     98.94% # attempts to use FU when none available
system.switch_cpus_1.iq.fu_full::FloatMemWrite       570136      1.06%    100.00% # attempts to use FU when none available
system.switch_cpus_1.iq.fu_full::IprAccess            0      0.00%    100.00% # attempts to use FU when none available
system.switch_cpus_1.iq.fu_full::InstPrefetch            0      0.00%    100.00% # attempts to use FU when none available
system.switch_cpus_1.iq.int_alu_accesses   1750153909                       # Number of integer alu accesses
system.switch_cpus_1.iq.int_inst_queue_reads   4073803778                       # Number of integer instruction queue reads
system.switch_cpus_1.iq.int_inst_queue_wakeup_accesses   1680061115                       # Number of integer instruction queue wakeup accesses
system.switch_cpus_1.iq.int_inst_queue_writes   2116333243                       # Number of integer instruction queue writes
system.switch_cpus_1.iq.iqInstsAdded       2253292050                       # Number of instructions added to the IQ (excludes non-spec)
system.switch_cpus_1.iq.iqInstsIssued      2100376613                       # Number of instructions issued
system.switch_cpus_1.iq.iqNonSpecInstsAdded       603782                       # Number of non-speculative instructions added to the IQ
system.switch_cpus_1.iq.iqSquashedInstsExamined    381329750                       # Number of squashed instructions iterated over during squash; mainly for profiling
system.switch_cpus_1.iq.iqSquashedInstsIssued      9729320                       # Number of squashed instructions issued
system.switch_cpus_1.iq.iqSquashedNonSpecRemoved       597540                       # Number of squashed non-spec instructions that were removed
system.switch_cpus_1.iq.iqSquashedOperandsExamined    538098233                       # Number of squashed operands that are examined and possibly removed from graph
system.switch_cpus_1.iq.issued_per_cycle::samples    600849919                       # Number of insts issued each cycle
system.switch_cpus_1.iq.issued_per_cycle::mean     3.495676                       # Number of insts issued each cycle
system.switch_cpus_1.iq.issued_per_cycle::stdev     2.969561                       # Number of insts issued each cycle
system.switch_cpus_1.iq.issued_per_cycle::underflows            0      0.00%      0.00% # Number of insts issued each cycle
system.switch_cpus_1.iq.issued_per_cycle::0    197204919     32.82%     32.82% # Number of insts issued each cycle
system.switch_cpus_1.iq.issued_per_cycle::1     20178062      3.36%     36.18% # Number of insts issued each cycle
system.switch_cpus_1.iq.issued_per_cycle::2     32353416      5.38%     41.56% # Number of insts issued each cycle
system.switch_cpus_1.iq.issued_per_cycle::3     41544046      6.91%     48.48% # Number of insts issued each cycle
system.switch_cpus_1.iq.issued_per_cycle::4     49251283      8.20%     56.68% # Number of insts issued each cycle
system.switch_cpus_1.iq.issued_per_cycle::5     58050504      9.66%     66.34% # Number of insts issued each cycle
system.switch_cpus_1.iq.issued_per_cycle::6     75449264     12.56%     78.89% # Number of insts issued each cycle
system.switch_cpus_1.iq.issued_per_cycle::7     63641055     10.59%     89.49% # Number of insts issued each cycle
system.switch_cpus_1.iq.issued_per_cycle::8     63177370     10.51%    100.00% # Number of insts issued each cycle
system.switch_cpus_1.iq.issued_per_cycle::overflows            0      0.00%    100.00% # Number of insts issued each cycle
system.switch_cpus_1.iq.issued_per_cycle::min_value            0                       # Number of insts issued each cycle
system.switch_cpus_1.iq.issued_per_cycle::max_value            8                       # Number of insts issued each cycle
system.switch_cpus_1.iq.issued_per_cycle::total    600849919                       # Number of insts issued each cycle
system.switch_cpus_1.iq.rate                 3.494159                       # Inst issue rate
system.switch_cpus_1.iq.vec_alu_accesses            0                       # Number of vector alu accesses
system.switch_cpus_1.iq.vec_inst_queue_reads            0                       # Number of vector instruction queue reads
system.switch_cpus_1.iq.vec_inst_queue_wakeup_accesses            0                       # Number of vector instruction queue wakeup accesses
system.switch_cpus_1.iq.vec_inst_queue_writes            0                       # Number of vector instruction queue writes
system.switch_cpus_1.itb.rdAccesses                 0                       # TLB accesses on read requests
system.switch_cpus_1.itb.rdMisses                   0                       # TLB misses on read requests
system.switch_cpus_1.itb.wrAccesses         181081975                       # TLB accesses on write requests
system.switch_cpus_1.itb.wrMisses               10219                       # TLB misses on write requests
system.switch_cpus_1.memDep0.conflictingLoads     12172797                       # Number of conflicting loads.
system.switch_cpus_1.memDep0.conflictingStores      5318078                       # Number of conflicting stores.
system.switch_cpus_1.memDep0.insertedLoads    288994910                       # Number of loads inserted to the mem dependence unit.
system.switch_cpus_1.memDep0.insertedStores    142246407                       # Number of stores inserted to the mem dependence unit.
system.switch_cpus_1.misc_regfile_reads     818275937                       # number of misc regfile reads
system.switch_cpus_1.misc_regfile_writes           63                       # number of misc regfile writes
system.switch_cpus_1.numCycles              601110836                       # number of cpu cycles simulated
system.switch_cpus_1.numWorkItemsCompleted            0                       # number of work items this cpu completed
system.switch_cpus_1.numWorkItemsStarted            0                       # number of work items this cpu started
system.switch_cpus_1.rename.BlockCycles     109400247                       # Number of cycles rename is blocking
system.switch_cpus_1.rename.CommittedMaps   2112960701                       # Number of HB maps that are committed
system.switch_cpus_1.rename.IQFullEvents     25665833                       # Number of times rename has blocked due to IQ full
system.switch_cpus_1.rename.IdleCycles       71732412                       # Number of cycles rename is idle
system.switch_cpus_1.rename.LQFullEvents     23990015                       # Number of times rename has blocked due to LQ full
system.switch_cpus_1.rename.ROBFullEvents      2921496                       # Number of times rename has blocked due to ROB full
system.switch_cpus_1.rename.RenameLookups   5735665236                       # Number of register rename lookups that rename has made
system.switch_cpus_1.rename.RenamedInsts   2350747270                       # Number of instructions processed by rename
system.switch_cpus_1.rename.RenamedOperands   2626183134                       # Number of destination operands rename has renamed
system.switch_cpus_1.rename.RunCycles       323761122                       # Number of cycles rename is running
system.switch_cpus_1.rename.SQFullEvents     26543731                       # Number of times rename has blocked due to SQ full
system.switch_cpus_1.rename.SquashCycles      8721639                       # Number of cycles rename is squashing
system.switch_cpus_1.rename.UnblockCycles     87199393                       # Number of cycles rename is unblocking
system.switch_cpus_1.rename.UndoneMaps      513222362                       # Number of HB maps that are undone due to squashing
system.switch_cpus_1.rename.fp_rename_lookups    693875330                       # Number of floating rename lookups
system.switch_cpus_1.rename.int_rename_lookups   3035408789                       # Number of integer rename lookups
system.switch_cpus_1.rename.serializeStallCycles        35099                       # count of cycles rename stalled for serializing inst
system.switch_cpus_1.rename.serializingInsts         3575                       # count of serializing insts renamed
system.switch_cpus_1.rename.skidInsts       121317055                       # count of insts added to the skid buffer
system.switch_cpus_1.rename.tempSerializingInsts         4398                       # count of temporary serializing insts renamed
system.switch_cpus_1.rob.rob_reads         2642110601                       # The number of ROB reads
system.switch_cpus_1.rob.rob_writes        4548627809                       # The number of ROB writes
system.switch_cpus_1.timesIdled                  8832                       # Number of times that the entire CPU went into an idle state and unscheduled itself
system.tol2bus.snoop_filter.hit_multi_requests          107                       # Number of requests hitting in the snoop filter with multiple (>1) holders of the requested data.
system.tol2bus.snoop_filter.hit_multi_snoops            5                       # Number of snoops hitting in the snoop filter with multiple (>1) holders of the requested data.
system.tol2bus.snoop_filter.hit_single_requests      2305883                       # Number of requests hitting in the snoop filter with a single holder of the requested data.
system.tol2bus.snoop_filter.hit_single_snoops       179259                       # Number of snoops hitting in the snoop filter with a single holder of the requested data.
system.tol2bus.snoop_filter.tot_requests      4603245                       # Total number of requests made to the snoop filter.
system.tol2bus.snoop_filter.tot_snoops         179264                       # Total number of snoops made to the snoop filter.
system.tol3bus.snoop_filter.hit_multi_requests            0                       # Number of requests hitting in the snoop filter with multiple (>1) holders of the requested data.
system.tol3bus.snoop_filter.hit_multi_snoops            0                       # Number of snoops hitting in the snoop filter with multiple (>1) holders of the requested data.
system.tol3bus.snoop_filter.hit_single_requests      1181151                       # Number of requests hitting in the snoop filter with a single holder of the requested data.
system.tol3bus.snoop_filter.hit_single_snoops       952957                       # Number of snoops hitting in the snoop filter with a single holder of the requested data.
system.tol3bus.snoop_filter.tot_requests      2361967                       # Total number of requests made to the snoop filter.
system.tol3bus.snoop_filter.tot_snoops         952957                       # Total number of snoops made to the snoop filter.
system.membus.trans_dist::ReadResp             878299                       # Transaction distribution
system.membus.trans_dist::WritebackDirty       324992                       # Transaction distribution
system.membus.trans_dist::CleanEvict           709968                       # Transaction distribution
system.membus.trans_dist::ReadExReq            157028                       # Transaction distribution
system.membus.trans_dist::ReadExResp           157028                       # Transaction distribution
system.membus.trans_dist::ReadSharedReq        878299                       # Transaction distribution
system.membus.pkt_count_system.l3.mem_side::system.mem_ctrls.port      3105614                       # Packet count per connected master and slave (bytes)
system.membus.pkt_count_system.l3.mem_side::total      3105614                       # Packet count per connected master and slave (bytes)
system.membus.pkt_count::total                3105614                       # Packet count per connected master and slave (bytes)
system.membus.pkt_size_system.l3.mem_side::system.mem_ctrls.port     87060416                       # Cumulative packet size per connected master and slave (bytes)
system.membus.pkt_size_system.l3.mem_side::total     87060416                       # Cumulative packet size per connected master and slave (bytes)
system.membus.pkt_size::total                87060416                       # Cumulative packet size per connected master and slave (bytes)
system.membus.snoops                                0                       # Total snoops (count)
system.membus.snoopTraffic                          0                       # Total snoop traffic (bytes)
system.membus.snoop_fanout::samples           1035327                       # Request fanout histogram
system.membus.snoop_fanout::mean                    0                       # Request fanout histogram
system.membus.snoop_fanout::stdev                   0                       # Request fanout histogram
system.membus.snoop_fanout::underflows              0      0.00%      0.00% # Request fanout histogram
system.membus.snoop_fanout::0                 1035327    100.00%    100.00% # Request fanout histogram
system.membus.snoop_fanout::1                       0      0.00%    100.00% # Request fanout histogram
system.membus.snoop_fanout::overflows               0      0.00%    100.00% # Request fanout histogram
system.membus.snoop_fanout::min_value               0                       # Request fanout histogram
system.membus.snoop_fanout::max_value               0                       # Request fanout histogram
system.membus.snoop_fanout::total             1035327                       # Request fanout histogram
system.membus.reqLayer2.occupancy          3637375000                       # Layer occupancy (ticks)
system.membus.reqLayer2.utilization               1.2                       # Layer utilization (%)
system.membus.respLayer1.occupancy         5479212250                       # Layer occupancy (ticks)
system.membus.respLayer1.utilization              1.8                       # Layer utilization (%)
system.membus.power_state.pwrStateResidencyTicks::UNDEFINED 1527301552500                       # Cumulative time (in ticks) in various power states
system.switch_cpus_1.dtb.walker.power_state.pwrStateResidencyTicks::UNDEFINED 1527301552500                       # Cumulative time (in ticks) in various power states
system.switch_cpus_1.itb.walker.power_state.pwrStateResidencyTicks::UNDEFINED 1527301552500                       # Cumulative time (in ticks) in various power states
system.switch_cpus_1.power_state.pwrStateResidencyTicks::OFF 1527301552500                       # Cumulative time (in ticks) in various power states
system.switch_cpus.dtb.walker.power_state.pwrStateResidencyTicks::UNDEFINED 1527301552500                       # Cumulative time (in ticks) in various power states
system.switch_cpus.itb.walker.power_state.pwrStateResidencyTicks::UNDEFINED 1527301552500                       # Cumulative time (in ticks) in various power states
system.switch_cpus.power_state.numTransitions            1                       # Number of power state transitions
system.switch_cpus.power_state.pwrStateResidencyTicks::OFF 1527301552500                       # Cumulative time (in ticks) in various power states
system.tol2bus.trans_dist::ReadResp           2087302                       # Transaction distribution
system.tol2bus.trans_dist::WritebackDirty       859950                       # Transaction distribution
system.tol2bus.trans_dist::WritebackClean       998903                       # Transaction distribution
system.tol2bus.trans_dist::CleanEvict         2576386                       # Transaction distribution
system.tol2bus.trans_dist::UpgradeReq            8579                       # Transaction distribution
system.tol2bus.trans_dist::UpgradeResp           8579                       # Transaction distribution
system.tol2bus.trans_dist::ReadExReq           210042                       # Transaction distribution
system.tol2bus.trans_dist::ReadExResp          210042                       # Transaction distribution
system.tol2bus.trans_dist::ReadCleanReq        998925                       # Transaction distribution
system.tol2bus.trans_dist::ReadSharedReq      1088377                       # Transaction distribution
system.tol2bus.pkt_count_system.cpu.icache.mem_side::system.l2.cpu_side      2996729                       # Packet count per connected master and slave (bytes)
system.tol2bus.pkt_count_system.cpu.dcache.mem_side::system.l2.cpu_side      3912415                       # Packet count per connected master and slave (bytes)
system.tol2bus.pkt_count::total               6909144                       # Packet count per connected master and slave (bytes)
system.tol2bus.pkt_size_system.cpu.icache.mem_side::system.l2.cpu_side    127859456                       # Cumulative packet size per connected master and slave (bytes)
system.tol2bus.pkt_size_system.cpu.dcache.mem_side::system.l2.cpu_side    111472448                       # Cumulative packet size per connected master and slave (bytes)
system.tol2bus.pkt_size::total              239331904                       # Cumulative packet size per connected master and slave (bytes)
system.tol2bus.snoops                         2137941                       # Total snoops (count)
system.tol2bus.snoopTraffic                  26664704                       # Total snoop traffic (bytes)
system.tol2bus.snoop_fanout::samples          4443840                       # Request fanout histogram
system.tol2bus.snoop_fanout::mean            0.040366                       # Request fanout histogram
system.tol2bus.snoop_fanout::stdev           0.196822                       # Request fanout histogram
system.tol2bus.snoop_fanout::underflows             0      0.00%      0.00% # Request fanout histogram
system.tol2bus.snoop_fanout::0                4264465     95.96%     95.96% # Request fanout histogram
system.tol2bus.snoop_fanout::1                 179370      4.04%    100.00% # Request fanout histogram
system.tol2bus.snoop_fanout::2                      5      0.00%    100.00% # Request fanout histogram
system.tol2bus.snoop_fanout::3                      0      0.00%    100.00% # Request fanout histogram
system.tol2bus.snoop_fanout::4                      0      0.00%    100.00% # Request fanout histogram
system.tol2bus.snoop_fanout::overflows              0      0.00%    100.00% # Request fanout histogram
system.tol2bus.snoop_fanout::min_value              0                       # Request fanout histogram
system.tol2bus.snoop_fanout::max_value              2                       # Request fanout histogram
system.tol2bus.snoop_fanout::total            4443840                       # Request fanout histogram
system.tol2bus.reqLayer0.occupancy         3743863500                       # Layer occupancy (ticks)
system.tol2bus.reqLayer0.utilization              1.2                       # Layer utilization (%)
system.tol2bus.respLayer1.occupancy        1951930974                       # Layer occupancy (ticks)
system.tol2bus.respLayer1.utilization             0.6                       # Layer utilization (%)
system.tol2bus.respLayer0.occupancy        1498394985                       # Layer occupancy (ticks)
system.tol2bus.respLayer0.utilization             0.5                       # Layer utilization (%)
system.tol2bus.power_state.pwrStateResidencyTicks::UNDEFINED 1527301552500                       # Cumulative time (in ticks) in various power states
system.voltage_domain.voltage                       1                       # Voltage in Volts
system.clk_domain.clock                          1000                       # Clock period in ticks
system.l2.demand_hits::.switch_cpus_1.inst       995269                       # number of demand (read+write) hits
system.l2.demand_hits::.switch_cpus_1.data       121233                       # number of demand (read+write) hits
system.l2.demand_hits::total                  1116502                       # number of demand (read+write) hits
system.l2.overall_hits::.switch_cpus_1.inst       995269                       # number of overall hits
system.l2.overall_hits::.switch_cpus_1.data       121233                       # number of overall hits
system.l2.overall_hits::total                 1116502                       # number of overall hits
system.l2.demand_misses::.switch_cpus_1.inst         3632                       # number of demand (read+write) misses
system.l2.demand_misses::.switch_cpus_1.data      1177186                       # number of demand (read+write) misses
system.l2.demand_misses::total                1180818                       # number of demand (read+write) misses
system.l2.overall_misses::.switch_cpus_1.inst         3632                       # number of overall misses
system.l2.overall_misses::.switch_cpus_1.data      1177186                       # number of overall misses
system.l2.overall_misses::total               1180818                       # number of overall misses
system.l2.demand_miss_latency::.switch_cpus_1.inst    340635000                       # number of demand (read+write) miss cycles
system.l2.demand_miss_latency::.switch_cpus_1.data  96480965500                       # number of demand (read+write) miss cycles
system.l2.demand_miss_latency::total      96821600500                       # number of demand (read+write) miss cycles
system.l2.overall_miss_latency::.switch_cpus_1.inst    340635000                       # number of overall miss cycles
system.l2.overall_miss_latency::.switch_cpus_1.data  96480965500                       # number of overall miss cycles
system.l2.overall_miss_latency::total     96821600500                       # number of overall miss cycles
system.l2.demand_accesses::.switch_cpus_1.inst       998901                       # number of demand (read+write) accesses
system.l2.demand_accesses::.switch_cpus_1.data      1298419                       # number of demand (read+write) accesses
system.l2.demand_accesses::total              2297320                       # number of demand (read+write) accesses
system.l2.overall_accesses::.switch_cpus_1.inst       998901                       # number of overall (read+write) accesses
system.l2.overall_accesses::.switch_cpus_1.data      1298419                       # number of overall (read+write) accesses
system.l2.overall_accesses::total             2297320                       # number of overall (read+write) accesses
system.l2.demand_miss_rate::.switch_cpus_1.inst     0.003636                       # miss rate for demand accesses
[...]
system.cpu.dcache.demand_avg_miss_latency::total 61458.305409                       # average overall miss latency
system.cpu.dcache.overall_avg_miss_latency::.switch_cpus.data 37431.213544                       # average overall miss latency
system.cpu.dcache.overall_avg_miss_latency::.switch_cpus_1.data 64707.248559                       # average overall miss latency
system.cpu.dcache.overall_avg_miss_latency::total 61452.661718                       # average overall miss latency
system.cpu.dcache.blocked_cycles::no_mshrs      9799236                       # number of cycles access was blocked
system.cpu.dcache.blocked_cycles::no_targets         8114                       # number of cycles access was blocked
system.cpu.dcache.blocked::no_mshrs            232745                       # number of cycles access was blocked
system.cpu.dcache.blocked::no_targets              54                       # number of cycles access was blocked
system.cpu.dcache.avg_blocked_cycles::no_mshrs    42.102885                       # average number of cycles each access was blocked
system.cpu.dcache.avg_blocked_cycles::no_targets   150.259259                       # average number of cycles each access was blocked
system.cpu.dcache.writebacks::.writebacks       781716                       # number of writebacks
system.cpu.dcache.writebacks::total            781716                       # number of writebacks
system.cpu.dcache.demand_mshr_hits::.switch_cpus_1.data      5348401                       # number of demand (read+write) MSHR hits
system.cpu.dcache.demand_mshr_hits::total      5348401                       # number of demand (read+write) MSHR hits
system.cpu.dcache.overall_mshr_hits::.switch_cpus_1.data      5348401                       # number of overall MSHR hits
system.cpu.dcache.overall_mshr_hits::total      5348401                       # number of overall MSHR hits
system.cpu.dcache.demand_mshr_misses::.switch_cpus.data        28116                       # number of demand (read+write) MSHR misses
system.cpu.dcache.demand_mshr_misses::.switch_cpus_1.data      1305288                       # number of demand (read+write) MSHR misses
system.cpu.dcache.demand_mshr_misses::total      1333404                       # number of demand (read+write) MSHR misses
system.cpu.dcache.overall_mshr_misses::.switch_cpus.data        28116                       # number of overall MSHR misses
system.cpu.dcache.overall_mshr_misses::.switch_cpus_1.data      1305672                       # number of overall MSHR misses
system.cpu.dcache.overall_mshr_misses::total      1333788                       # number of overall MSHR misses
system.cpu.dcache.demand_mshr_miss_latency::.switch_cpus.data   1038358000                       # number of demand (read+write) MSHR miss cycles
system.cpu.dcache.demand_mshr_miss_latency::.switch_cpus_1.data  98550883136                       # number of demand (read+write) MSHR miss cycles
system.cpu.dcache.demand_mshr_miss_latency::total  99589241136                       # number of demand (read+write) MSHR miss cycles
system.cpu.dcache.overall_mshr_miss_latency::.switch_cpus.data   1038358000                       # number of overall MSHR miss cycles
system.cpu.dcache.overall_mshr_miss_latency::.switch_cpus_1.data  98561825136                       # number of overall MSHR miss cycles
system.cpu.dcache.overall_mshr_miss_latency::total  99600183136                       # number of overall MSHR miss cycles
system.cpu.dcache.demand_mshr_miss_rate::.switch_cpus.data     0.000660                       # mshr miss rate for demand accesses
system.cpu.dcache.demand_mshr_miss_rate::.switch_cpus_1.data     0.003629                       # mshr miss rate for demand accesses
system.cpu.dcache.demand_mshr_miss_rate::total     0.001612                       # mshr miss rate for demand accesses
system.cpu.dcache.overall_mshr_miss_rate::.switch_cpus.data     0.000660                       # mshr miss rate for overall accesses
system.cpu.dcache.overall_mshr_miss_rate::.switch_cpus_1.data     0.003628                       # mshr miss rate for overall accesses
system.cpu.dcache.overall_mshr_miss_rate::total     0.001612                       # mshr miss rate for overall accesses
system.cpu.dcache.demand_avg_mshr_miss_latency::.switch_cpus.data 36931.213544                       # average overall mshr miss latency
system.cpu.dcache.demand_avg_mshr_miss_latency::.switch_cpus_1.data 75501.255766                       # average overall mshr miss latency
system.cpu.dcache.demand_avg_mshr_miss_latency::total 74687.972389                       # average overall mshr miss latency
system.cpu.dcache.overall_avg_mshr_miss_latency::.switch_cpus.data 36931.213544                       # average overall mshr miss latency
system.cpu.dcache.overall_avg_mshr_miss_latency::.switch_cpus_1.data 75487.431098                       # average overall mshr miss latency
system.cpu.dcache.overall_avg_mshr_miss_latency::total 74674.673288                       # average overall mshr miss latency
system.cpu.dcache.replacements                1667447                       # number of replacements
system.cpu.dcache.ReadReq_hits::.cpu.data    237889541                       # number of ReadReq hits
system.cpu.dcache.ReadReq_hits::.switch_cpus.data     23800040                       # number of ReadReq hits
system.cpu.dcache.ReadReq_hits::.switch_cpus_1.data    236738540                       # number of ReadReq hits
system.cpu.dcache.ReadReq_hits::total       498428121                       # number of ReadReq hits
system.cpu.dcache.ReadReq_misses::.cpu.data       189743                       # number of ReadReq misses
system.cpu.dcache.ReadReq_misses::.switch_cpus.data        15894                       # number of ReadReq misses
system.cpu.dcache.ReadReq_misses::.switch_cpus_1.data      6432744                       # number of ReadReq misses
system.cpu.dcache.ReadReq_misses::total       6638381                       # number of ReadReq misses
system.cpu.dcache.ReadReq_miss_latency::.switch_cpus.data    148660500                       # number of ReadReq miss cycles
system.cpu.dcache.ReadReq_miss_latency::.switch_cpus_1.data 414608667000                       # number of ReadReq miss cycles
system.cpu.dcache.ReadReq_miss_latency::total 414757327500                       # number of ReadReq miss cycles
system.cpu.dcache.ReadReq_accesses::.cpu.data    238079284                       # number of ReadReq accesses(hits+misses)
system.cpu.dcache.ReadReq_accesses::.switch_cpus.data     23815934                       # number of ReadReq accesses(hits+misses)
system.cpu.dcache.ReadReq_accesses::.switch_cpus_1.data    243171284                       # number of ReadReq accesses(hits+misses)
system.cpu.dcache.ReadReq_accesses::total    505066502                       # number of ReadReq accesses(hits+misses)
system.cpu.dcache.ReadReq_miss_rate::.cpu.data     0.000797                       # miss rate for ReadReq accesses
system.cpu.dcache.ReadReq_miss_rate::.switch_cpus.data     0.000667                       # miss rate for ReadReq accesses
system.cpu.dcache.ReadReq_miss_rate::.switch_cpus_1.data     0.026454                       # miss rate for ReadReq accesses
system.cpu.dcache.ReadReq_miss_rate::total     0.013144                       # miss rate for ReadReq accesses
system.cpu.dcache.ReadReq_avg_miss_latency::.switch_cpus.data  9353.246508                       # average ReadReq miss latency
system.cpu.dcache.ReadReq_avg_miss_latency::.switch_cpus_1.data 64452.847339                       # average ReadReq miss latency
system.cpu.dcache.ReadReq_avg_miss_latency::total 62478.686821                       # average ReadReq miss latency
system.cpu.dcache.ReadReq_mshr_hits::.switch_cpus_1.data      5344750                       # number of ReadReq MSHR hits
system.cpu.dcache.ReadReq_mshr_hits::total      5344750                       # number of ReadReq MSHR hits
system.cpu.dcache.ReadReq_mshr_misses::.switch_cpus.data        15894                       # number of ReadReq MSHR misses
system.cpu.dcache.ReadReq_mshr_misses::.switch_cpus_1.data      1087994                       # number of ReadReq MSHR misses
system.cpu.dcache.ReadReq_mshr_misses::total      1103888                       # number of ReadReq MSHR misses
system.cpu.dcache.ReadReq_mshr_miss_latency::.switch_cpus.data    140713500                       # number of ReadReq MSHR miss cycles
system.cpu.dcache.ReadReq_mshr_miss_latency::.switch_cpus_1.data  82859711000                       # number of ReadReq MSHR miss cycles
system.cpu.dcache.ReadReq_mshr_miss_latency::total  83000424500                       # number of ReadReq MSHR miss cycles
system.cpu.dcache.ReadReq_mshr_miss_rate::.switch_cpus.data     0.000667                       # mshr miss rate for ReadReq accesses
system.cpu.dcache.ReadReq_mshr_miss_rate::.switch_cpus_1.data     0.004474                       # mshr miss rate for ReadReq accesses
system.cpu.dcache.ReadReq_mshr_miss_rate::total     0.002186                       # mshr miss rate for ReadReq accesses
system.cpu.dcache.ReadReq_avg_mshr_miss_latency::.switch_cpus.data  8853.246508                       # average ReadReq mshr miss latency
system.cpu.dcache.ReadReq_avg_mshr_miss_latency::.switch_cpus_1.data 76158.242601                       # average ReadReq mshr miss latency
system.cpu.dcache.ReadReq_avg_mshr_miss_latency::total 75189.171818                       # average ReadReq mshr miss latency
system.cpu.dcache.WriteReq_hits::.cpu.data    186544031                       # number of WriteReq hits
system.cpu.dcache.WriteReq_hits::.switch_cpus.data     18750994                       # number of WriteReq hits
system.cpu.dcache.WriteReq_hits::.switch_cpus_1.data    116318550                       # number of WriteReq hits
system.cpu.dcache.WriteReq_hits::total      321613575                       # number of WriteReq hits
system.cpu.dcache.WriteReq_misses::.cpu.data       151686                       # number of WriteReq misses
system.cpu.dcache.WriteReq_misses::.switch_cpus.data        12222                       # number of WriteReq misses
system.cpu.dcache.WriteReq_misses::.switch_cpus_1.data       220945                       # number of WriteReq misses
system.cpu.dcache.WriteReq_misses::total       384853                       # number of WriteReq misses
system.cpu.dcache.WriteReq_miss_latency::.switch_cpus.data    903755500                       # number of WriteReq miss cycles
system.cpu.dcache.WriteReq_miss_latency::.switch_cpus_1.data  15974977132                       # number of WriteReq miss cycles
system.cpu.dcache.WriteReq_miss_latency::total  16878732632                       # number of WriteReq miss cycles
system.cpu.dcache.WriteReq_accesses::.cpu.data    186695717                       # number of WriteReq accesses(hits+misses)
system.cpu.dcache.WriteReq_accesses::.switch_cpus.data     18763216                       # number of WriteReq accesses(hits+misses)
system.cpu.dcache.WriteReq_accesses::.switch_cpus_1.data    116539495                       # number of WriteReq accesses(hits+misses)
system.cpu.dcache.WriteReq_accesses::total    321998428                       # number of WriteReq accesses(hits+misses)
system.cpu.dcache.WriteReq_miss_rate::.cpu.data     0.000812                       # miss rate for WriteReq accesses
system.cpu.dcache.WriteReq_miss_rate::.switch_cpus.data     0.000651                       # miss rate for WriteReq accesses
system.cpu.dcache.WriteReq_miss_rate::.switch_cpus_1.data     0.001896                       # miss rate for WriteReq accesses
system.cpu.dcache.WriteReq_miss_rate::total     0.001195                       # miss rate for WriteReq accesses
system.cpu.dcache.WriteReq_avg_miss_latency::.switch_cpus.data 73944.976272                       # average WriteReq miss latency
system.cpu.dcache.WriteReq_avg_miss_latency::.switch_cpus_1.data 72302.958347                       # average WriteReq miss latency
system.cpu.dcache.WriteReq_avg_miss_latency::total 43857.609612                       # average WriteReq miss latency
system.cpu.dcache.WriteReq_mshr_hits::.switch_cpus_1.data         3651                       # number of WriteReq MSHR hits
system.cpu.dcache.WriteReq_mshr_hits::total         3651                       # number of WriteReq MSHR hits
system.cpu.dcache.WriteReq_mshr_misses::.switch_cpus.data        12222                       # number of WriteReq MSHR misses
system.cpu.dcache.WriteReq_mshr_misses::.switch_cpus_1.data       217294                       # number of WriteReq MSHR misses
system.cpu.dcache.WriteReq_mshr_misses::total       229516                       # number of WriteReq MSHR misses
system.cpu.dcache.WriteReq_mshr_miss_latency::.switch_cpus.data    897644500                       # number of WriteReq MSHR miss cycles
system.cpu.dcache.WriteReq_mshr_miss_latency::.switch_cpus_1.data  15691172136                       # number of WriteReq MSHR miss cycles
system.cpu.dcache.WriteReq_mshr_miss_latency::total  16588816636                       # number of WriteReq MSHR miss cycles
system.cpu.dcache.WriteReq_mshr_miss_rate::.switch_cpus.data     0.000651                       # mshr miss rate for WriteReq accesses
system.cpu.dcache.WriteReq_mshr_miss_rate::.switch_cpus_1.data     0.001865                       # mshr miss rate for WriteReq accesses
system.cpu.dcache.WriteReq_mshr_miss_rate::total     0.000713                       # mshr miss rate for WriteReq accesses
system.cpu.dcache.WriteReq_avg_mshr_miss_latency::.switch_cpus.data 73444.976272                       # average WriteReq mshr miss latency
system.cpu.dcache.WriteReq_avg_mshr_miss_latency::.switch_cpus_1.data 72211.713789                       # average WriteReq mshr miss latency
system.cpu.dcache.WriteReq_avg_mshr_miss_latency::total 72277.386483                       # average WriteReq mshr miss latency
system.cpu.dcache.SoftPFReq_hits::.switch_cpus_1.data       181823                       # number of SoftPFReq hits
system.cpu.dcache.SoftPFReq_hits::total        181823                       # number of SoftPFReq hits
system.cpu.dcache.SoftPFReq_misses::.switch_cpus_1.data          645                       # number of SoftPFReq misses
system.cpu.dcache.SoftPFReq_misses::total          645                       # number of SoftPFReq misses
system.cpu.dcache.SoftPFReq_accesses::.switch_cpus_1.data       182468                       # number of SoftPFReq accesses(hits+misses)
system.cpu.dcache.SoftPFReq_accesses::total       182468                       # number of SoftPFReq accesses(hits+misses)
system.cpu.dcache.SoftPFReq_miss_rate::.switch_cpus_1.data     0.003535                       # miss rate for SoftPFReq accesses
system.cpu.dcache.SoftPFReq_miss_rate::total     0.003535                       # miss rate for SoftPFReq accesses
system.cpu.dcache.SoftPFReq_mshr_misses::.switch_cpus_1.data          384                       # number of SoftPFReq MSHR misses
system.cpu.dcache.SoftPFReq_mshr_misses::total          384                       # number of SoftPFReq MSHR misses
system.cpu.dcache.SoftPFReq_mshr_miss_latency::.switch_cpus_1.data     10942000                       # number of SoftPFReq MSHR miss cycles
system.cpu.dcache.SoftPFReq_mshr_miss_latency::total     10942000                       # number of SoftPFReq MSHR miss cycles
system.cpu.dcache.SoftPFReq_mshr_miss_rate::.switch_cpus_1.data     0.002104                       # mshr miss rate for SoftPFReq accesses
system.cpu.dcache.SoftPFReq_mshr_miss_rate::total     0.002104                       # mshr miss rate for SoftPFReq accesses
system.cpu.dcache.SoftPFReq_avg_mshr_miss_latency::.switch_cpus_1.data 28494.791667                       # average SoftPFReq mshr miss latency
system.cpu.dcache.SoftPFReq_avg_mshr_miss_latency::total 28494.791667                       # average SoftPFReq mshr miss latency
system.cpu.dcache.power_state.pwrStateResidencyTicks::UNDEFINED 1527301552500                       # Cumulative time (in ticks) in various power states
system.cpu.dcache.tags.tagsinuse           511.995867                       # Cycle average of tags in use
system.cpu.dcache.tags.total_refs           821900931                       # Total number of references to valid blocks.
system.cpu.dcache.tags.sampled_refs           1667959                       # Sample count of references to valid blocks.
system.cpu.dcache.tags.avg_refs            492.758474                       # Average number of references to valid blocks.
system.cpu.dcache.tags.warmup_cycle              1500                       # Cycle when the warmup percentage was hit.
system.cpu.dcache.tags.occ_blocks::.cpu.data   389.770477                       # Average occupied blocks per requestor
system.cpu.dcache.tags.occ_blocks::.switch_cpus.data    24.668009                       # Average occupied blocks per requestor
system.cpu.dcache.tags.occ_blocks::.switch_cpus_1.data    97.557380                       # Average occupied blocks per requestor
system.cpu.dcache.tags.occ_percent::.cpu.data     0.761270                       # Average percentage of cache occupancy
system.cpu.dcache.tags.occ_percent::.switch_cpus.data     0.048180                       # Average percentage of cache occupancy
system.cpu.dcache.tags.occ_percent::.switch_cpus_1.data     0.190542                       # Average percentage of cache occupancy
system.cpu.dcache.tags.occ_percent::total     0.999992                       # Average percentage of cache occupancy
system.cpu.dcache.tags.occ_task_id_blocks::1024          512                       # Occupied blocks per task id
system.cpu.dcache.tags.age_task_id_blocks_1024::0            2                       # Occupied blocks per task id
system.cpu.dcache.tags.age_task_id_blocks_1024::1           25                       # Occupied blocks per task id
system.cpu.dcache.tags.age_task_id_blocks_1024::2          143                       # Occupied blocks per task id
system.cpu.dcache.tags.age_task_id_blocks_1024::3          184                       # Occupied blocks per task id
system.cpu.dcache.tags.age_task_id_blocks_1024::4          158                       # Occupied blocks per task id
system.cpu.dcache.tags.occ_task_id_percent::1024            1                       # Percentage of cache occupancy per task id
system.cpu.dcache.tags.tag_accesses        3310657551                       # Number of tag accesses
system.cpu.dcache.tags.data_accesses       3310657551                       # Number of data accesses
system.cpu.dcache.tags.cache_friendly               0                       # Number of cache friendly accesses
system.cpu.dcache.tags.cache_averse         821900931                       # Number of cache averse accesses
system.cpu.dcache.tags.cache_friendly_victims            0                       # Number of cache friendly victims
system.cpu.dcache.tags.cache_averse_victims      1667959                       # Number of cache averse victims
system.cpu.dcache.tags.OPT_hits                     0                       # Number of OPT hits
system.cpu.dcache.tags.OPT_misses                   0                       # Number of OPT misses
system.cpu.dcache.tags.OPT_nan              827247398                       # Number of OPT nan
system.cpu.dcache.tags.power_state.pwrStateResidencyTicks::UNDEFINED 1527301552500                       # Cumulative time (in ticks) in various power states
system.cpu.power_state.numTransitions               2                       # Number of power state transitions
system.cpu.power_state.pwrStateResidencyTicks::ON 1135600018000                       # Cumulative time (in ticks) in various power states
system.cpu.power_state.pwrStateResidencyTicks::OFF 391701534500                       # Cumulative time (in ticks) in various power states

---------- End Simulation Statistics   ----------
