
---------- Begin Simulation Statistics ----------
final_tick                               5343108747000                       # Number of ticks from beginning of simulation (restored from checkpoints and never reset)
host_inst_rate                                 135134                       # Simulator instruction rate (inst/s)
host_mem_usage                                 746028                       # Number of bytes of host memory used
host_op_rate                                   241301                       # Simulator op (including micro ops) rate (op/s)
host_seconds                                 15540.12                       # Real time elapsed on the host
host_tick_rate                              226700547                       # Simulator tick rate (ticks/s)
sim_freq                                 1000000000000                       # Frequency of simulated ticks
sim_insts                                  2100000002                       # Number of instructions simulated
sim_ops                                    3749847930                       # Number of ops (including micro ops) simulated
sim_seconds                                  3.522954                       # Number of seconds simulated
sim_ticks                                3522953885000                       # Number of ticks simulated
system.cpu.committedInsts                           0                       # Number of instructions committed
system.cpu.committedOps                             0                       # Number of ops (including micro ops) committed
system.cpu.dtb.rdAccesses                           0                       # TLB accesses on read requests
system.cpu.dtb.rdMisses                             0                       # TLB misses on read requests
system.cpu.dtb.wrAccesses                           0                       # TLB accesses on write requests
system.cpu.dtb.wrMisses                             0                       # TLB misses on write requests
system.cpu.idle_fraction                            0                       # Percentage of idle cycles
system.cpu.itb.rdAccesses                           0                       # TLB accesses on read requests
system.cpu.itb.rdMisses                             0                       # TLB misses on read requests
system.cpu.itb.wrAccesses                           0                       # TLB accesses on write requests
system.cpu.itb.wrMisses                             0                       # TLB misses on write requests
system.cpu.not_idle_fraction                        1                       # Percentage of non-idle cycles
system.cpu.numCycles                                0                       # number of cpu cycles simulated
system.cpu.numWorkItemsCompleted                    0                       # number of work items this cpu completed
system.cpu.numWorkItemsStarted                      0                       # number of work items this cpu started
system.cpu.num_busy_cycles                          0                       # Number of busy cycles
system.cpu.num_conditional_control_insts            0                       # number of instructions that are conditional controls
system.cpu.num_fp_alu_accesses                      0                       # Number of float alu accesses
system.cpu.num_fp_insts                             0                       # number of float instructions
system.cpu.num_fp_register_reads                    0                       # number of times the floating registers were read
system.cpu.num_fp_register_writes                   0                       # number of times the floating registers were written
system.cpu.num_func_calls                           0                       # number of times a function call or return occured
system.cpu.num_idle_cycles                          0                       # Number of idle cycles
system.cpu.num_int_alu_accesses                     0                       # Number of integer alu accesses
system.cpu.num_int_insts                            0                       # number of integer instructions
system.cpu.num_int_register_reads                   0                       # number of times the integer registers were read
system.cpu.num_int_register_writes                  0                       # number of times the integer registers were written
system.cpu.num_load_insts                           0                       # Number of load instructions
system.cpu.num_mem_refs                             0                       # number of memory refs
system.cpu.num_store_insts                          0                       # Number of store instructions
system.cpu.num_vec_alu_accesses                     0                       # Number of vector alu accesses
system.cpu.num_vec_insts                            0                       # number of vector instructions
system.cpu.num_vec_register_reads                   0                       # number of times the vector registers were read
system.cpu.num_vec_register_writes                  0                       # number of times the vector registers were written
system.cpu.op_class::No_OpClass                     0                       # Class of executed instruction
system.cpu.op_class::IntAlu                         0                       # Class of executed instruction
system.cpu.op_class::IntMult                        0                       # Class of executed instruction
system.cpu.op_class::IntDiv                         0                       # Class of executed instruction
system.cpu.op_class::FloatAdd                       0                       # Class of executed instruction
system.cpu.op_class::FloatCmp                       0                       # Class of executed instruction
system.cpu.op_class::FloatCvt                       0                       # Class of executed instruction
system.cpu.op_class::FloatMult                      0                       # Class of executed instruction
system.cpu.op_class::FloatMultAcc                   0                       # Class of executed instruction
system.cpu.op_class::FloatDiv                       0                       # Class of executed instruction
system.cpu.op_class::FloatMisc                      0                       # Class of executed instruction
system.cpu.op_class::FloatSqrt                      0                       # Class of executed instruction
system.cpu.op_class::SimdAdd                        0                       # Class of executed instruction
system.cpu.op_class::SimdAddAcc                     0                       # Class of executed instruction
system.cpu.op_class::SimdAlu                        0                       # Class of executed instruction
system.cpu.op_class::SimdCmp                        0                       # Class of executed instruction
system.cpu.op_class::SimdCvt                        0                       # Class of executed instruction
system.cpu.op_class::SimdMisc                       0                       # Class of executed instruction
system.cpu.op_class::SimdMult                       0                       # Class of executed instruction
system.cpu.op_class::SimdMultAcc                    0                       # Class of executed instruction
system.cpu.op_class::SimdShift                      0                       # Class of executed instruction
system.cpu.op_class::SimdShiftAcc                   0                       # Class of executed instruction
system.cpu.op_class::SimdDiv                        0                       # Class of executed instruction
system.cpu.op_class::SimdSqrt                       0                       # Class of executed instruction
system.cpu.op_class::SimdFloatAdd                   0                       # Class of executed instruction
system.cpu.op_class::SimdFloatAlu                   0                       # Class of executed instruction
system.cpu.op_class::SimdFloatCmp                   0                       # Class of executed instruction
system.cpu.op_class::SimdFloatCvt                   0                       # Class of executed instruction
system.cpu.op_class::SimdFloatDiv                   0                       # Class of executed instruction
system.cpu.op_class::SimdFloatMisc                  0                       # Class of executed instruction
system.cpu.op_class::SimdFloatMult                  0                       # Class of executed instruction
system.cpu.op_class::SimdFloatMultAcc               0                       # Class of executed instruction
system.cpu.op_class::SimdFloatSqrt                  0                       # Class of executed instruction
system.cpu.op_class::SimdReduceAdd                  0                       # Class of executed instruction
system.cpu.op_class::SimdReduceAlu                  0                       # Class of executed instruction
system.cpu.op_class::SimdReduceCmp                  0                       # Class of executed instruction
system.cpu.op_class::SimdFloatReduceAdd             0                       # Class of executed instruction
system.cpu.op_class::SimdFloatReduceCmp             0                       # Class of executed instruction
system.cpu.op_class::SimdAes                        0                       # Class of executed instruction
system.cpu.op_class::SimdAesMix                     0                       # Class of executed instruction
system.cpu.op_class::SimdSha1Hash                   0                       # Class of executed instruction
system.cpu.op_class::SimdSha1Hash2                  0                       # Class of executed instruction
system.cpu.op_class::SimdSha256Hash                 0                       # Class of executed instruction
system.cpu.op_class::SimdSha256Hash2                0                       # Class of executed instruction
system.cpu.op_class::SimdShaSigma2                  0                       # Class of executed instruction
system.cpu.op_class::SimdShaSigma3                  0                       # Class of executed instruction
system.cpu.op_class::SimdPredAlu                    0                       # Class of executed instruction
system.cpu.op_class::MemRead                        0                       # Class of executed instruction
system.cpu.op_class::MemWrite                       0                       # Class of executed instruction
system.cpu.op_class::FloatMemRead                   0                       # Class of executed instruction
system.cpu.op_class::FloatMemWrite                  0                       # Class of executed instruction
system.cpu.op_class::IprAccess                      0                       # Class of executed instruction
system.cpu.op_class::InstPrefetch                   0                       # Class of executed instruction
system.cpu.op_class::total                          0                       # Class of executed instruction
system.cpu.workload.numSyscalls                     0                       # Number of system calls
system.membus.snoop_filter.hit_multi_requests            0                       # Number of requests hitting in the snoop filter with multiple (>1) holders of the requested data.
system.membus.snoop_filter.hit_multi_snoops            0                       # Number of snoops hitting in the snoop filter with multiple (>1) holders of the requested data.
system.membus.snoop_filter.hit_single_requests     63419344                       # Number of requests hitting in the snoop filter with a single holder of the requested data.
system.membus.snoop_filter.hit_single_snoops            0                       # Number of snoops hitting in the snoop filter with a single holder of the requested data.
system.membus.snoop_filter.tot_requests     126838451                       # Total number of requests made to the snoop filter.
system.membus.snoop_filter.tot_snoops               0                       # Total number of snoops made to the snoop filter.
system.switch_cpus.committedInsts                   0                       # Number of instructions committed
system.switch_cpus.committedOps                     0                       # Number of ops (including micro ops) committed
system.switch_cpus.dtb.rdAccesses                   0                       # TLB accesses on read requests
system.switch_cpus.dtb.rdMisses                     0                       # TLB misses on read requests
system.switch_cpus.dtb.wrAccesses                   0                       # TLB accesses on write requests
system.switch_cpus.dtb.wrMisses                     0                       # TLB misses on write requests
system.switch_cpus.idle_fraction                    0                       # Percentage of idle cycles
system.switch_cpus.itb.rdAccesses                   0                       # TLB accesses on read requests
system.switch_cpus.itb.rdMisses                     0                       # TLB misses on read requests
system.switch_cpus.itb.wrAccesses                   0                       # TLB accesses on write requests
system.switch_cpus.itb.wrMisses                     0                       # TLB misses on write requests
system.switch_cpus.not_idle_fraction                1                       # Percentage of non-idle cycles
system.switch_cpus.numCycles                        0                       # number of cpu cycles simulated
system.switch_cpus.numWorkItemsCompleted            0                       # number of work items this cpu completed
system.switch_cpus.numWorkItemsStarted              0                       # number of work items this cpu started
system.switch_cpus.num_busy_cycles                  0                       # Number of busy cycles
system.switch_cpus.num_conditional_control_insts            0                       # number of instructions that are conditional controls
system.switch_cpus.num_fp_alu_accesses              0                       # Number of float alu accesses
system.switch_cpus.num_fp_insts                     0                       # number of float instructions
system.switch_cpus.num_fp_register_reads            0                       # number of times the floating registers were read
system.switch_cpus.num_fp_register_writes            0                       # number of times the floating registers were written
system.switch_cpus.num_func_calls                   0                       # number of times a function call or return occured
system.switch_cpus.num_idle_cycles                  0                       # Number of idle cycles
system.switch_cpus.num_int_alu_accesses             0                       # Number of integer alu accesses
system.switch_cpus.num_int_insts                    0                       # number of integer instructions
system.switch_cpus.num_int_register_reads            0                       # number of times the integer registers were read
system.switch_cpus.num_int_register_writes            0                       # number of times the integer registers were written
system.switch_cpus.num_load_insts                   0                       # Number of load instructions
system.switch_cpus.num_mem_refs                     0                       # number of memory refs
system.switch_cpus.num_store_insts                  0                       # Number of store instructions
system.switch_cpus.num_vec_alu_accesses             0                       # Number of vector alu accesses
system.switch_cpus.num_vec_insts                    0                       # number of vector instructions
system.switch_cpus.num_vec_register_reads            0                       # number of times the vector registers were read
system.switch_cpus.num_vec_register_writes            0                       # number of times the vector registers were written
system.switch_cpus.op_class::No_OpClass             0                       # Class of executed instruction
system.switch_cpus.op_class::IntAlu                 0                       # Class of executed instruction
system.switch_cpus.op_class::IntMult                0                       # Class of executed instruction
system.switch_cpus.op_class::IntDiv                 0                       # Class of executed instruction
system.switch_cpus.op_class::FloatAdd               0                       # Class of executed instruction
system.switch_cpus.op_class::FloatCmp               0                       # Class of executed instruction
system.switch_cpus.op_class::FloatCvt               0                       # Class of executed instruction
system.switch_cpus.op_class::FloatMult              0                       # Class of executed instruction
system.switch_cpus.op_class::FloatMultAcc            0                       # Class of executed instruction
system.switch_cpus.op_class::FloatDiv               0                       # Class of executed instruction
system.switch_cpus.op_class::FloatMisc              0                       # Class of executed instruction
system.switch_cpus.op_class::FloatSqrt              0                       # Class of executed instruction
system.switch_cpus.op_class::SimdAdd                0                       # Class of executed instruction
system.switch_cpus.op_class::SimdAddAcc             0                       # Class of executed instruction
system.switch_cpus.op_class::SimdAlu                0                       # Class of executed instruction
system.switch_cpus.op_class::SimdCmp                0                       # Class of executed instruction
system.switch_cpus.op_class::SimdCvt                0                       # Class of executed instruction
system.switch_cpus.op_class::SimdMisc               0                       # Class of executed instruction
system.switch_cpus.op_class::SimdMult               0                       # Class of executed instruction
system.switch_cpus.op_class::SimdMultAcc            0                       # Class of executed instruction
system.switch_cpus.op_class::SimdShift              0                       # Class of executed instruction
system.switch_cpus.op_class::SimdShiftAcc            0                       # Class of executed instruction
system.switch_cpus.op_class::SimdDiv                0                       # Class of executed instruction
system.switch_cpus.op_class::SimdSqrt               0                       # Class of executed instruction
system.switch_cpus.op_class::SimdFloatAdd            0                       # Class of executed instruction
system.switch_cpus.op_class::SimdFloatAlu            0                       # Class of executed instruction
system.switch_cpus.op_class::SimdFloatCmp            0                       # Class of executed instruction
system.switch_cpus.op_class::SimdFloatCvt            0                       # Class of executed instruction
system.switch_cpus.op_class::SimdFloatDiv            0                       # Class of executed instruction
system.switch_cpus.op_class::SimdFloatMisc            0                       # Class of executed instruction
system.switch_cpus.op_class::SimdFloatMult            0                       # Class of executed instruction
system.switch_cpus.op_class::SimdFloatMultAcc            0                       # Class of executed instruction
system.switch_cpus.op_class::SimdFloatSqrt            0                       # Class of executed instruction
system.switch_cpus.op_class::SimdReduceAdd            0                       # Class of executed instruction
system.switch_cpus.op_class::SimdReduceAlu            0                       # Class of executed instruction
system.switch_cpus.op_class::SimdReduceCmp            0                       # Class of executed instruction
system.switch_cpus.op_class::SimdFloatReduceAdd            0                       # Class of executed instruction
system.switch_cpus.op_class::SimdFloatReduceCmp            0                       # Class of executed instruction
system.switch_cpus.op_class::SimdAes                0                       # Class of executed instruction
system.switch_cpus.op_class::SimdAesMix             0                       # Class of executed instruction
system.switch_cpus.op_class::SimdSha1Hash            0                       # Class of executed instruction
system.switch_cpus.op_class::SimdSha1Hash2            0                       # Class of executed instruction
system.switch_cpus.op_class::SimdSha256Hash            0                       # Class of executed instruction
system.switch_cpus.op_class::SimdSha256Hash2            0                       # Class of executed instruction
system.switch_cpus.op_class::SimdShaSigma2            0                       # Class of executed instruction
system.switch_cpus.op_class::SimdShaSigma3            0                       # Class of executed instruction
system.switch_cpus.op_class::SimdPredAlu            0                       # Class of executed instruction
system.switch_cpus.op_class::MemRead                0                       # Class of executed instruction
system.switch_cpus.op_class::MemWrite               0                       # Class of executed instruction
system.switch_cpus.op_class::FloatMemRead            0                       # Class of executed instruction
system.switch_cpus.op_class::FloatMemWrite            0                       # Class of executed instruction
system.switch_cpus.op_class::IprAccess              0                       # Class of executed instruction
system.switch_cpus.op_class::InstPrefetch            0                       # Class of executed instruction
system.switch_cpus.op_class::total                  0                       # Class of executed instruction
system.switch_cpus_1.branchPred.BTBCorrect            0                       # Number of correct BTB predictions (this stat may not work properly.
system.switch_cpus_1.branchPred.BTBHitPct          nan                       # BTB Hit Percentage
system.switch_cpus_1.branchPred.BTBHits             0                       # Number of BTB hits
system.switch_cpus_1.branchPred.BTBLookups            0                       # Number of BTB lookups
system.switch_cpus_1.branchPred.RASInCorrect         1802                       # Number of incorrect RAS predictions.
system.switch_cpus_1.branchPred.condIncorrect     82336004                       # Number of conditional branches incorrect
system.switch_cpus_1.branchPred.condPredicted   1103695576                       # Number of conditional branches predicted
system.switch_cpus_1.branchPred.indirectHits    289706763                       # Number of indirect target hits.
system.switch_cpus_1.branchPred.indirectLookups    618833132                       # Number of indirect predictor lookups.
system.switch_cpus_1.branchPred.indirectMisses    329126369                       # Number of indirect misses.
system.switch_cpus_1.branchPred.lookups    1207195518                       # Number of BP lookups
system.switch_cpus_1.branchPred.usedRAS      54750637                       # Number of times the RAS was used to get a target.
system.switch_cpus_1.branchPredindirectMispredicted     38326071                       # Number of mispredicted indirect branches.
system.switch_cpus_1.cc_regfile_reads      2066160793                       # number of cc regfile reads
system.switch_cpus_1.cc_regfile_writes     1347729722                       # number of cc regfile writes
system.switch_cpus_1.commit.amos                    0                       # Number of atomic instructions committed
system.switch_cpus_1.commit.branchMispredicts     82338338                       # The number of times a branch was mispredicted
system.switch_cpus_1.commit.branches        255270542                       # Number of branches committed
system.switch_cpus_1.commit.bw_lim_events     79876182                       # number cycles where commit BW limit reached
system.switch_cpus_1.commit.commitSquashedInsts   3523038608                       # The number of squashed insts skipped by commit
system.switch_cpus_1.commit.committedInsts   1000000000                       # Number of instructions committed
system.switch_cpus_1.commit.committedOps   1748593337                       # Number of ops (including micro ops) committed
system.switch_cpus_1.commit.committed_per_cycle::samples   6477871575                       # Number of insts commited each cycle
system.switch_cpus_1.commit.committed_per_cycle::mean     0.269933                       # Number of insts commited each cycle
system.switch_cpus_1.commit.committed_per_cycle::stdev     1.153326                       # Number of insts commited each cycle
system.switch_cpus_1.commit.committed_per_cycle::underflows            0      0.00%      0.00% # Number of insts commited each cycle
system.switch_cpus_1.commit.committed_per_cycle::0   5967684269     92.12%     92.12% # Number of insts commited each cycle
system.switch_cpus_1.commit.committed_per_cycle::1    164419203      2.54%     94.66% # Number of insts commited each cycle
system.switch_cpus_1.commit.committed_per_cycle::2     53891011      0.83%     95.49% # Number of insts commited each cycle
system.switch_cpus_1.commit.committed_per_cycle::3    112166409      1.73%     97.23% # Number of insts commited each cycle
system.switch_cpus_1.commit.committed_per_cycle::4     31299863      0.48%     97.71% # Number of insts commited each cycle
system.switch_cpus_1.commit.committed_per_cycle::5     40412308      0.62%     98.33% # Number of insts commited each cycle
system.switch_cpus_1.commit.committed_per_cycle::6     23233873      0.36%     98.69% # Number of insts commited each cycle
system.switch_cpus_1.commit.committed_per_cycle::7      4888457      0.08%     98.77% # Number of insts commited each cycle
system.switch_cpus_1.commit.committed_per_cycle::8     79876182      1.23%    100.00% # Number of insts commited each cycle
system.switch_cpus_1.commit.committed_per_cycle::overflows            0      0.00%    100.00% # Number of insts commited each cycle
system.switch_cpus_1.commit.committed_per_cycle::min_value            0                       # Number of insts commited each cycle
system.switch_cpus_1.commit.committed_per_cycle::max_value            8                       # Number of insts commited each cycle
system.switch_cpus_1.commit.committed_per_cycle::total   6477871575                       # Number of insts commited each cycle
system.switch_cpus_1.commit.fp_insts                0                       # Number of committed floating point instructions.
system.switch_cpus_1.commit.function_calls      1511731                       # Number of function calls committed.
system.switch_cpus_1.commit.int_insts      1743072331                       # Number of committed integer instructions.
system.switch_cpus_1.commit.loads           368544021                       # Number of loads committed
system.switch_cpus_1.commit.membars                 0                       # Number of memory barriers committed
system.switch_cpus_1.commit.op_class_0::No_OpClass      3188328      0.18%      0.18% # Class of committed instruction
system.switch_cpus_1.commit.op_class_0::IntAlu   1305809412     74.68%     74.86% # Class of committed instruction
system.switch_cpus_1.commit.op_class_0::IntMult        52800      0.00%     74.86% # Class of committed instruction
system.switch_cpus_1.commit.op_class_0::IntDiv            0      0.00%     74.86% # Class of committed instruction
system.switch_cpus_1.commit.op_class_0::FloatAdd            0      0.00%     74.86% # Class of committed instruction
system.switch_cpus_1.commit.op_class_0::FloatCmp            0      0.00%     74.86% # Class of committed instruction
system.switch_cpus_1.commit.op_class_0::FloatCvt            0      0.00%     74.86% # Class of committed instruction
system.switch_cpus_1.commit.op_class_0::FloatMult            0      0.00%     74.86% # Class of committed instruction
system.switch_cpus_1.commit.op_class_0::FloatMultAcc            0      0.00%     74.86% # Class of committed instruction
system.switch_cpus_1.commit.op_class_0::FloatDiv            0      0.00%     74.86% # Class of committed instruction
system.switch_cpus_1.commit.op_class_0::FloatMisc            0      0.00%     74.86% # Class of committed instruction
system.switch_cpus_1.commit.op_class_0::FloatSqrt            0      0.00%     74.86% # Class of committed instruction
system.switch_cpus_1.commit.op_class_0::SimdAdd            0      0.00%     74.86% # Class of committed instruction
system.switch_cpus_1.commit.op_class_0::SimdAddAcc            0      0.00%     74.86% # Class of committed instruction
system.switch_cpus_1.commit.op_class_0::SimdAlu            0      0.00%     74.86% # Class of committed instruction
system.switch_cpus_1.commit.op_class_0::SimdCmp            0      0.00%     74.86% # Class of committed instruction
system.switch_cpus_1.commit.op_class_0::SimdCvt            0      0.00%     74.86% # Class of committed instruction
system.switch_cpus_1.commit.op_class_0::SimdMisc            0      0.00%     74.86% # Class of committed instruction
system.switch_cpus_1.commit.op_class_0::SimdMult            0      0.00%     74.86% # Class of committed instruction
system.switch_cpus_1.commit.op_class_0::SimdMultAcc            0      0.00%     74.86% # Class of committed instruction
system.switch_cpus_1.commit.op_class_0::SimdShift            0      0.00%     74.86% # Class of committed instruction
system.switch_cpus_1.commit.op_class_0::SimdShiftAcc            0      0.00%     74.86% # Class of committed instruction
system.switch_cpus_1.commit.op_class_0::SimdDiv            0      0.00%     74.86% # Class of committed instruction
system.switch_cpus_1.commit.op_class_0::SimdSqrt            0      0.00%     74.86% # Class of committed instruction
system.switch_cpus_1.commit.op_class_0::SimdFloatAdd            0      0.00%     74.86% # Class of committed instruction
system.switch_cpus_1.commit.op_class_0::SimdFloatAlu            0      0.00%     74.86% # Class of committed instruction
system.switch_cpus_1.commit.op_class_0::SimdFloatCmp            0      0.00%     74.86% # Class of committed instruction
system.switch_cpus_1.commit.op_class_0::SimdFloatCvt            0      0.00%     74.86% # Class of committed instruction
system.switch_cpus_1.commit.op_class_0::SimdFloatDiv            0      0.00%     74.86% # Class of committed instruction
system.switch_cpus_1.commit.op_class_0::SimdFloatMisc            0      0.00%     74.86% # Class of committed instruction
system.switch_cpus_1.commit.op_class_0::SimdFloatMult            0      0.00%     74.86% # Class of committed instruction
system.switch_cpus_1.commit.op_class_0::SimdFloatMultAcc            0      0.00%     74.86% # Class of committed instruction
system.switch_cpus_1.commit.op_class_0::SimdFloatSqrt            0      0.00%     74.86% # Class of committed instruction
system.switch_cpus_1.commit.op_class_0::SimdReduceAdd            0      0.00%     74.86% # Class of committed instruction
system.switch_cpus_1.commit.op_class_0::SimdReduceAlu            0      0.00%     74.86% # Class of committed instruction
system.switch_cpus_1.commit.op_class_0::SimdReduceCmp            0      0.00%     74.86% # Class of committed instruction
system.switch_cpus_1.commit.op_class_0::SimdFloatReduceAdd            0      0.00%     74.86% # Class of committed instruction
system.switch_cpus_1.commit.op_class_0::SimdFloatReduceCmp            0      0.00%     74.86% # Class of committed instruction
system.switch_cpus_1.commit.op_class_0::SimdAes            0      0.00%     74.86% # Class of committed instruction
system.switch_cpus_1.commit.op_class_0::SimdAesMix            0      0.00%     74.86% # Class of committed instruction
system.switch_cpus_1.commit.op_class_0::SimdSha1Hash            0      0.00%     74.86% # Class of committed instruction
system.switch_cpus_1.commit.op_class_0::SimdSha1Hash2            0      0.00%     74.86% # Class of committed instruction
system.switch_cpus_1.commit.op_class_0::SimdSha256Hash            0      0.00%     74.86% # Class of committed instruction
system.switch_cpus_1.commit.op_class_0::SimdSha256Hash2            0      0.00%     74.86% # Class of committed instruction
system.switch_cpus_1.commit.op_class_0::SimdShaSigma2            0      0.00%     74.86% # Class of committed instruction
system.switch_cpus_1.commit.op_class_0::SimdShaSigma3            0      0.00%     74.86% # Class of committed instruction
system.switch_cpus_1.commit.op_class_0::SimdPredAlu            0      0.00%     74.86% # Class of committed instruction
system.switch_cpus_1.commit.op_class_0::MemRead    368544021     21.08%     95.94% # Class of committed instruction
system.switch_cpus_1.commit.op_class_0::MemWrite     70998776      4.06%    100.00% # Class of committed instruction
system.switch_cpus_1.commit.op_class_0::FloatMemRead            0      0.00%    100.00% # Class of committed instruction
system.switch_cpus_1.commit.op_class_0::FloatMemWrite            0      0.00%    100.00% # Class of committed instruction
system.switch_cpus_1.commit.op_class_0::IprAccess            0      0.00%    100.00% # Class of committed instruction
system.switch_cpus_1.commit.op_class_0::InstPrefetch            0      0.00%    100.00% # Class of committed instruction
system.switch_cpus_1.commit.op_class_0::total   1748593337                       # Class of committed instruction
system.switch_cpus_1.commit.refs            439542797                       # Number of memory references committed
system.switch_cpus_1.commit.swp_count               0                       # Number of s/w prefetches committed
system.switch_cpus_1.commit.vec_insts               0                       # Number of committed Vector instructions.
system.switch_cpus_1.committedInsts        1000000000                       # Number of Instructions Simulated
system.switch_cpus_1.committedOps          1748593337                       # Number of Ops (including micro ops) Simulated
system.switch_cpus_1.cpi                     7.045908                       # CPI: Cycles Per Instruction
system.switch_cpus_1.cpi_total               7.045908                       # CPI: Total CPI of All Threads
system.switch_cpus_1.decode.BlockedCycles   5854925489                       # Number of cycles decode is blocked
system.switch_cpus_1.decode.DecodedInsts   6598132262                       # Number of instructions handled by decode
system.switch_cpus_1.decode.IdleCycles      241574978                       # Number of cycles decode is idle
system.switch_cpus_1.decode.RunCycles       618143476                       # Number of cycles decode is running
system.switch_cpus_1.decode.SquashCycles     82661458                       # Number of cycles decode is squashing
system.switch_cpus_1.decode.UnblockCycles    248299897                       # Number of cycles decode is unblocking
system.switch_cpus_1.dtb.rdAccesses         768026808                       # TLB accesses on read requests
system.switch_cpus_1.dtb.rdMisses            92292962                       # TLB misses on read requests
system.switch_cpus_1.dtb.wrAccesses         156807216                       # TLB accesses on write requests
system.switch_cpus_1.dtb.wrMisses             1292582                       # TLB misses on write requests
system.switch_cpus_1.fetch.Branches        1207195518                       # Number of branches that fetch encountered
system.switch_cpus_1.fetch.CacheLines       496596237                       # Number of cache lines fetched
system.switch_cpus_1.fetch.Cycles          6897565757                       # Number of cycles fetch has run and was not squashing or blocked
system.switch_cpus_1.fetch.IcacheSquashes            3                       # Number of outstanding Icache misses that were squashed
system.switch_cpus_1.fetch.Insts           4890432726                       # Number of instructions fetch has processed
system.switch_cpus_1.fetch.ItlbSquashes            13                       # Number of outstanding ITLB misses that were squashed
system.switch_cpus_1.fetch.MiscStallCycles         1524                       # Number of cycles fetch has spent waiting on interrupts, or bad addresses, or out of MSHRs
system.switch_cpus_1.fetch.PendingTrapStallCycles       149406                       # Number of stall cycles due to pending traps
system.switch_cpus_1.fetch.SquashCycles     165322916                       # Number of cycles fetch has spent squashing
system.switch_cpus_1.fetch.TlbCycles             6569                       # Number of cycles fetch has spent waiting for tlb
system.switch_cpus_1.fetch.branchRate        0.171333                       # Number of branch fetches per cycle
system.switch_cpus_1.fetch.icacheStallCycles     65220590                       # Number of cycles fetch is stalled on an Icache miss
system.switch_cpus_1.fetch.predictedBranches    344457400                       # Number of branches that fetch has predicted taken
system.switch_cpus_1.fetch.rate              0.694081                       # Number of inst fetches per cycle
system.switch_cpus_1.fetch.rateDist::samples   7045605304                       # Number of instructions fetched each cycle (Total)
system.switch_cpus_1.fetch.rateDist::mean     1.233267                       # Number of instructions fetched each cycle (Total)
system.switch_cpus_1.fetch.rateDist::stdev     2.712224                       # Number of instructions fetched each cycle (Total)
system.switch_cpus_1.fetch.rateDist::underflows            0      0.00%      0.00% # Number of instructions fetched each cycle (Total)
system.switch_cpus_1.fetch.rateDist::0     5684284427     80.68%     80.68% # Number of instructions fetched each cycle (Total)
system.switch_cpus_1.fetch.rateDist::1       63771940      0.91%     81.58% # Number of instructions fetched each cycle (Total)
system.switch_cpus_1.fetch.rateDist::2       84950903      1.21%     82.79% # Number of instructions fetched each cycle (Total)
system.switch_cpus_1.fetch.rateDist::3       67805960      0.96%     83.75% # Number of instructions fetched each cycle (Total)
system.switch_cpus_1.fetch.rateDist::4       89026251      1.26%     85.02% # Number of instructions fetched each cycle (Total)
system.switch_cpus_1.fetch.rateDist::5      120078668      1.70%     86.72% # Number of instructions fetched each cycle (Total)
system.switch_cpus_1.fetch.rateDist::6       35019540      0.50%     87.22% # Number of instructions fetched each cycle (Total)
system.switch_cpus_1.fetch.rateDist::7      119936203      1.70%     88.92% # Number of instructions fetched each cycle (Total)
system.switch_cpus_1.fetch.rateDist::8      780731412     11.08%    100.00% # Number of instructions fetched each cycle (Total)
system.switch_cpus_1.fetch.rateDist::overflows            0      0.00%    100.00% # Number of instructions fetched each cycle (Total)
system.switch_cpus_1.fetch.rateDist::min_value            0                       # Number of instructions fetched each cycle (Total)
system.switch_cpus_1.fetch.rateDist::max_value            8                       # Number of instructions fetched each cycle (Total)
system.switch_cpus_1.fetch.rateDist::total   7045605304                       # Number of instructions fetched each cycle (Total)
system.switch_cpus_1.idleCycles                302466                       # Total number of cycles that the CPU has spent unscheduled due to idling
system.switch_cpus_1.iew.branchMispredicts    112580416                       # Number of branch mispredicts detected at execute
system.switch_cpus_1.iew.exec_branches      483052381                       # Number of branches executed
system.switch_cpus_1.iew.exec_nop                   0                       # number of nop insts executed
system.switch_cpus_1.iew.exec_rate           0.598306                       # Inst execution rate
system.switch_cpus_1.iew.exec_refs         1138719609                       # number of memory reference insts executed
system.switch_cpus_1.iew.exec_stores        156807216                       # Number of stores executed
system.switch_cpus_1.iew.exec_swp                   0                       # number of swp insts executed
system.switch_cpus_1.iew.iewBlockCycles    3462263583                       # Number of cycles IEW is blocking
system.switch_cpus_1.iew.iewDispLoadInsts   1005449349                       # Number of dispatched load instructions
system.switch_cpus_1.iew.iewDispNonSpecInsts            0                       # Number of dispatched non-speculative instructions
system.switch_cpus_1.iew.iewDispSquashedInsts      6315350                       # Number of squashed instructions skipped by dispatch
system.switch_cpus_1.iew.iewDispStoreInsts    276860185                       # Number of dispatched store instructions
system.switch_cpus_1.iew.iewDispatchedInsts   5266795717                       # Number of instructions dispatched to IQ
system.switch_cpus_1.iew.iewExecLoadInsts    981912393                       # Number of load instructions executed
system.switch_cpus_1.iew.iewExecSquashedInsts    201379337                       # Number of squashed instructions skipped in execute
system.switch_cpus_1.iew.iewExecutedInsts   4215609086                       # Number of executed instructions
system.switch_cpus_1.iew.iewIQFullEvents     25591814                       # Number of times the IQ has become full, causing a stall
system.switch_cpus_1.iew.iewIdleCycles              0                       # Number of cycles IEW is idle
system.switch_cpus_1.iew.iewLSQFullEvents    340927718                       # Number of times the LSQ has become full, causing a stall
system.switch_cpus_1.iew.iewSquashCycles     82661458                       # Number of cycles IEW is squashing
system.switch_cpus_1.iew.iewUnblockCycles    384763096                       # Number of cycles IEW is unblocking
system.switch_cpus_1.iew.lsq.thread0.blockedLoads            0                       # Number of blocked loads due to partial load-store forwarding
system.switch_cpus_1.iew.lsq.thread0.cacheBlocked     34979877                       # Number of times an access to memory failed due to the cache being blocked
system.switch_cpus_1.iew.lsq.thread0.forwLoads     16742720                       # Number of loads that had data forwarded from stores
system.switch_cpus_1.iew.lsq.thread0.ignoredResponses        56760                       # Number of memory responses ignored because the instruction is squashed
system.switch_cpus_1.iew.lsq.thread0.invAddrLoads            0                       # Number of loads ignored due to an invalid address
system.switch_cpus_1.iew.lsq.thread0.invAddrSwpfs            0                       # Number of software prefetches ignored due to an invalid address
system.switch_cpus_1.iew.lsq.thread0.memOrderViolation       391165                       # Number of memory ordering violations
system.switch_cpus_1.iew.lsq.thread0.rescheduledLoads            0                       # Number of loads that were rescheduled
system.switch_cpus_1.iew.lsq.thread0.squashedLoads    636905318                       # Number of loads squashed
system.switch_cpus_1.iew.lsq.thread0.squashedStores    205861407                       # Number of stores squashed
system.switch_cpus_1.iew.memOrderViolationEvents       391165                       # Number of memory order violations
system.switch_cpus_1.iew.predictedNotTakenIncorrect    100366464                       # Number of branches that were predicted not taken incorrectly
system.switch_cpus_1.iew.predictedTakenIncorrect     12213952                       # Number of branches that were predicted taken incorrectly
system.switch_cpus_1.iew.wb_consumers      4233758125                       # num instructions consuming a value
system.switch_cpus_1.iew.wb_count          3857803572                       # cumulative count of insts written-back
system.switch_cpus_1.iew.wb_fanout           0.666919                       # average fanout of values written-back
system.switch_cpus_1.iew.wb_producers      2823575039                       # num instructions producing a value
system.switch_cpus_1.iew.wb_rate             0.547524                       # insts written-back per cycle
system.switch_cpus_1.iew.wb_sent           3900476735                       # cumulative count of insts sent to commit
system.switch_cpus_1.int_regfile_reads     5374424078                       # number of integer regfile reads
system.switch_cpus_1.int_regfile_writes    3201380738                       # number of integer regfile writes
system.switch_cpus_1.ipc                     0.141926                       # IPC: Instructions Per Cycle
system.switch_cpus_1.ipc_total               0.141926                       # IPC: Total IPC of All Threads
system.switch_cpus_1.iq.FU_type_0::No_OpClass     35281009      0.80%      0.80% # Type of FU issued
system.switch_cpus_1.iq.FU_type_0::IntAlu   3183611484     72.08%     72.88% # Type of FU issued
system.switch_cpus_1.iq.FU_type_0::IntMult        76432      0.00%     72.88% # Type of FU issued
system.switch_cpus_1.iq.FU_type_0::IntDiv            0      0.00%     72.88% # Type of FU issued
system.switch_cpus_1.iq.FU_type_0::FloatAdd            0      0.00%     72.88% # Type of FU issued
system.switch_cpus_1.iq.FU_type_0::FloatCmp            0      0.00%     72.88% # Type of FU issued
system.switch_cpus_1.iq.FU_type_0::FloatCvt            0      0.00%     72.88% # Type of FU issued
system.switch_cpus_1.iq.FU_type_0::FloatMult            0      0.00%     72.88% # Type of FU issued
system.switch_cpus_1.iq.FU_type_0::FloatMultAcc            0      0.00%     72.88% # Type of FU issued
system.switch_cpus_1.iq.FU_type_0::FloatDiv            0      0.00%     72.88% # Type of FU issued
system.switch_cpus_1.iq.FU_type_0::FloatMisc            0      0.00%     72.88% # Type of FU issued
system.switch_cpus_1.iq.FU_type_0::FloatSqrt            0      0.00%     72.88% # Type of FU issued
system.switch_cpus_1.iq.FU_type_0::SimdAdd            0      0.00%     72.88% # Type of FU issued
system.switch_cpus_1.iq.FU_type_0::SimdAddAcc            0      0.00%     72.88% # Type of FU issued
system.switch_cpus_1.iq.FU_type_0::SimdAlu            0      0.00%     72.88% # Type of FU issued
system.switch_cpus_1.iq.FU_type_0::SimdCmp            0      0.00%     72.88% # Type of FU issued
system.switch_cpus_1.iq.FU_type_0::SimdCvt            0      0.00%     72.88% # Type of FU issued
system.switch_cpus_1.iq.FU_type_0::SimdMisc            0      0.00%     72.88% # Type of FU issued
system.switch_cpus_1.iq.FU_type_0::SimdMult            0      0.00%     72.88% # Type of FU issued
system.switch_cpus_1.iq.FU_type_0::SimdMultAcc            0      0.00%     72.88% # Type of FU issued
system.switch_cpus_1.iq.FU_type_0::SimdShift            0      0.00%     72.88% # Type of FU issued
system.switch_cpus_1.iq.FU_type_0::SimdShiftAcc            0      0.00%     72.88% # Type of FU issued
system.switch_cpus_1.iq.FU_type_0::SimdDiv            0      0.00%     72.88% # Type of FU issued
system.switch_cpus_1.iq.FU_type_0::SimdSqrt            0      0.00%     72.88% # Type of FU issued
system.switch_cpus_1.iq.FU_type_0::SimdFloatAdd            0      0.00%     72.88% # Type of FU issued
system.switch_cpus_1.iq.FU_type_0::SimdFloatAlu            0      0.00%     72.88% # Type of FU issued
system.switch_cpus_1.iq.FU_type_0::SimdFloatCmp            0      0.00%     72.88% # Type of FU issued
system.switch_cpus_1.iq.FU_type_0::SimdFloatCvt            0      0.00%     72.88% # Type of FU issued
system.switch_cpus_1.iq.FU_type_0::SimdFloatDiv            0      0.00%     72.88% # Type of FU issued
system.switch_cpus_1.iq.FU_type_0::SimdFloatMisc            0      0.00%     72.88% # Type of FU issued
system.switch_cpus_1.iq.FU_type_0::SimdFloatMult            0      0.00%     72.88% # Type of FU issued
system.switch_cpus_1.iq.FU_type_0::SimdFloatMultAcc            0      0.00%     72.88% # Type of FU issued
system.switch_cpus_1.iq.FU_type_0::SimdFloatSqrt            0      0.00%     72.88% # Type of FU issued
system.switch_cpus_1.iq.FU_type_0::SimdReduceAdd            0      0.00%     72.88% # Type of FU issued
system.switch_cpus_1.iq.FU_type_0::SimdReduceAlu            0      0.00%     72.88% # Type of FU issued
system.switch_cpus_1.iq.FU_type_0::SimdReduceCmp            0      0.00%     72.88% # Type of FU issued
system.switch_cpus_1.iq.FU_type_0::SimdFloatReduceAdd            0      0.00%     72.88% # Type of FU issued
system.switch_cpus_1.iq.FU_type_0::SimdFloatReduceCmp            0      0.00%     72.88% # Type of FU issued
system.switch_cpus_1.iq.FU_type_0::SimdAes            0      0.00%     72.88% # Type of FU issued
system.switch_cpus_1.iq.FU_type_0::SimdAesMix            0      0.00%     72.88% # Type of FU issued
system.switch_cpus_1.iq.FU_type_0::SimdSha1Hash            0      0.00%     72.88% # Type of FU issued
system.switch_cpus_1.iq.FU_type_0::SimdSha1Hash2            0      0.00%     72.88% # Type of FU issued
system.switch_cpus_1.iq.FU_type_0::SimdSha256Hash            0      0.00%     72.88% # Type of FU issued
system.switch_cpus_1.iq.FU_type_0::SimdSha256Hash2            0      0.00%     72.88% # Type of FU issued
system.switch_cpus_1.iq.FU_type_0::SimdShaSigma2            0      0.00%     72.88% # Type of FU issued
system.switch_cpus_1.iq.FU_type_0::SimdShaSigma3            0      0.00%     72.88% # Type of FU issued
system.switch_cpus_1.iq.FU_type_0::SimdPredAlu            0      0.00%     72.88% # Type of FU issued
system.switch_cpus_1.iq.FU_type_0::MemRead   1025245599     23.21%     96.09% # Type of FU issued
system.switch_cpus_1.iq.FU_type_0::MemWrite    172773903      3.91%    100.00% # Type of FU issued
system.switch_cpus_1.iq.FU_type_0::FloatMemRead            0      0.00%    100.00% # Type of FU issued
system.switch_cpus_1.iq.FU_type_0::FloatMemWrite            0      0.00%    100.00% # Type of FU issued
system.switch_cpus_1.iq.FU_type_0::IprAccess            0      0.00%    100.00% # Type of FU issued
system.switch_cpus_1.iq.FU_type_0::InstPrefetch            0      0.00%    100.00% # Type of FU issued
system.switch_cpus_1.iq.FU_type_0::total   4416988427                       # Type of FU issued
system.switch_cpus_1.iq.fp_alu_accesses             0                       # Number of floating point alu accesses
system.switch_cpus_1.iq.fp_inst_queue_reads            0                       # Number of floating instruction queue reads
system.switch_cpus_1.iq.fp_inst_queue_wakeup_accesses            0                       # Number of floating instruction queue wakeup accesses
system.switch_cpus_1.iq.fp_inst_queue_writes            0                       # Number of floating instruction queue writes
system.switch_cpus_1.iq.fu_busy_cnt         109604671                       # FU busy when requested
system.switch_cpus_1.iq.fu_busy_rate         0.024814                       # FU busy rate (busy events/executed inst)
system.switch_cpus_1.iq.fu_full::No_OpClass            0      0.00%      0.00% # attempts to use FU when none available
system.switch_cpus_1.iq.fu_full::IntAlu      61613377     56.21%     56.21% # attempts to use FU when none available
system.switch_cpus_1.iq.fu_full::IntMult            0      0.00%     56.21% # attempts to use FU when none available
system.switch_cpus_1.iq.fu_full::IntDiv             0      0.00%     56.21% # attempts to use FU when none available
system.switch_cpus_1.iq.fu_full::FloatAdd            0      0.00%     56.21% # attempts to use FU when none available
system.switch_cpus_1.iq.fu_full::FloatCmp            0      0.00%     56.21% # attempts to use FU when none available
system.switch_cpus_1.iq.fu_full::FloatCvt            0      0.00%     56.21% # attempts to use FU when none available
system.switch_cpus_1.iq.fu_full::FloatMult            0      0.00%     56.21% # attempts to use FU when none available
system.switch_cpus_1.iq.fu_full::FloatMultAcc            0      0.00%     56.21% # attempts to use FU when none available
system.switch_cpus_1.iq.fu_full::FloatDiv            0      0.00%     56.21% # attempts to use FU when none available
system.switch_cpus_1.iq.fu_full::FloatMisc            0      0.00%     56.21% # attempts to use FU when none available
system.switch_cpus_1.iq.fu_full::FloatSqrt            0      0.00%     56.21% # attempts to use FU when none available
system.switch_cpus_1.iq.fu_full::SimdAdd            0      0.00%     56.21% # attempts to use FU when none available
system.switch_cpus_1.iq.fu_full::SimdAddAcc            0      0.00%     56.21% # attempts to use FU when none available
system.switch_cpus_1.iq.fu_full::SimdAlu            0      0.00%     56.21% # attempts to use FU when none available
system.switch_cpus_1.iq.fu_full::SimdCmp            0      0.00%     56.21% # attempts to use FU when none available
system.switch_cpus_1.iq.fu_full::SimdCvt            0      0.00%     56.21% # attempts to use FU when none available
system.switch_cpus_1.iq.fu_full::SimdMisc            0      0.00%     56.21% # attempts to use FU when none available
system.switch_cpus_1.iq.fu_full::SimdMult            0      0.00%     56.21% # attempts to use FU when none available
system.switch_cpus_1.iq.fu_full::SimdMultAcc            0      0.00%     56.21% # attempts to use FU when none available
system.switch_cpus_1.iq.fu_full::SimdShift            0      0.00%     56.21% # attempts to use FU when none available
system.switch_cpus_1.iq.fu_full::SimdShiftAcc            0      0.00%     56.21% # attempts to use FU when none available
system.switch_cpus_1.iq.fu_full::SimdDiv            0      0.00%     56.21% # attempts to use FU when none available
system.switch_cpus_1.iq.fu_full::SimdSqrt            0      0.00%     56.21% # attempts to use FU when none available
system.switch_cpus_1.iq.fu_full::SimdFloatAdd            0      0.00%     56.21% # attempts to use FU when none available
system.switch_cpus_1.iq.fu_full::SimdFloatAlu            0      0.00%     56.21% # attempts to use FU when none available
system.switch_cpus_1.iq.fu_full::SimdFloatCmp            0      0.00%     56.21% # attempts to use FU when none available
system.switch_cpus_1.iq.fu_full::SimdFloatCvt            0      0.00%     56.21% # attempts to use FU when none available
system.switch_cpus_1.iq.fu_full::SimdFloatDiv            0      0.00%     56.21% # attempts to use FU when none available
system.switch_cpus_1.iq.fu_full::SimdFloatMisc            0      0.00%     56.21% # attempts to use FU when none available
system.switch_cpus_1.iq.fu_full::SimdFloatMult            0      0.00%     56.21% # attempts to use FU when none available
system.switch_cpus_1.iq.fu_full::SimdFloatMultAcc            0      0.00%     56.21% # attempts to use FU when none available
system.switch_cpus_1.iq.fu_full::SimdFloatSqrt            0      0.00%     56.21% # attempts to use FU when none available
system.switch_cpus_1.iq.fu_full::SimdReduceAdd            0      0.00%     56.21% # attempts to use FU when none available
system.switch_cpus_1.iq.fu_full::SimdReduceAlu            0      0.00%     56.21% # attempts to use FU when none available
system.switch_cpus_1.iq.fu_full::SimdReduceCmp            0      0.00%     56.21% # attempts to use FU when none available
system.switch_cpus_1.iq.fu_full::SimdFloatReduceAdd            0      0.00%     56.21% # attempts to use FU when none available
system.switch_cpus_1.iq.fu_full::SimdFloatReduceCmp            0      0.00%     56.21% # attempts to use FU when none available
system.switch_cpus_1.iq.fu_full::SimdAes            0      0.00%     56.21% # attempts to use FU when none available
system.switch_cpus_1.iq.fu_full::SimdAesMix            0      0.00%     56.21% # attempts to use FU when none available
system.switch_cpus_1.iq.fu_full::SimdSha1Hash            0      0.00%     56.21% # attempts to use FU when none available
system.switch_cpus_1.iq.fu_full::SimdSha1Hash2            0      0.00%     56.21% # attempts to use FU when none available
system.switch_cpus_1.iq.fu_full::SimdSha256Hash            0      0.00%     56.21% # attempts to use FU when none available
system.switch_cpus_1.iq.fu_full::SimdSha256Hash2            0      0.00%     56.21% # attempts to use FU when none available
system.switch_cpus_1.iq.fu_full::SimdShaSigma2            0      0.00%     56.21% # attempts to use FU when none available
system.switch_cpus_1.iq.fu_full::SimdShaSigma3            0      0.00%     56.21% # attempts to use FU when none available
system.switch_cpus_1.iq.fu_full::SimdPredAlu            0      0.00%     56.21% # attempts to use FU when none available
system.switch_cpus_1.iq.fu_full::MemRead     44886052     40.95%     97.17% # attempts to use FU when none available
system.switch_cpus_1.iq.fu_full::MemWrite      3105242      2.83%    100.00% # attempts to use FU when none available
system.switch_cpus_1.iq.fu_full::FloatMemRead            0      0.00%    100.00% # attempts to use FU when none available
system.switch_cpus_1.iq.fu_full::FloatMemWrite            0      0.00%    100.00% # attempts to use FU when none available
system.switch_cpus_1.iq.fu_full::IprAccess            0      0.00%    100.00% # attempts to use FU when none available
system.switch_cpus_1.iq.fu_full::InstPrefetch            0      0.00%    100.00% # attempts to use FU when none available
system.switch_cpus_1.iq.int_alu_accesses   4491312089                       # Number of integer alu accesses
system.switch_cpus_1.iq.int_inst_queue_reads  16075354036                       # Number of integer instruction queue reads
system.switch_cpus_1.iq.int_inst_queue_wakeup_accesses   3857803572                       # Number of integer instruction queue wakeup accesses
system.switch_cpus_1.iq.int_inst_queue_writes   8785336102                       # Number of integer instruction queue writes
system.switch_cpus_1.iq.iqInstsAdded       5266795717                       # Number of instructions added to the IQ (excludes non-spec)
system.switch_cpus_1.iq.iqInstsIssued      4416988427                       # Number of instructions issued
system.switch_cpus_1.iq.iqSquashedInstsExamined   3518202347                       # Number of squashed instructions iterated over during squash; mainly for profiling
system.switch_cpus_1.iq.iqSquashedInstsIssued     86167211                       # Number of squashed instructions issued
system.switch_cpus_1.iq.iqSquashedOperandsExamined   4814391146                       # Number of squashed operands that are examined and possibly removed from graph
system.switch_cpus_1.iq.issued_per_cycle::samples   7045605304                       # Number of insts issued each cycle
system.switch_cpus_1.iq.issued_per_cycle::mean     0.626914                       # Number of insts issued each cycle
system.switch_cpus_1.iq.issued_per_cycle::stdev     1.628101                       # Number of insts issued each cycle
system.switch_cpus_1.iq.issued_per_cycle::underflows            0      0.00%      0.00% # Number of insts issued each cycle
system.switch_cpus_1.iq.issued_per_cycle::0   5784242084     82.10%     82.10% # Number of insts issued each cycle
system.switch_cpus_1.iq.issued_per_cycle::1    326199554      4.63%     86.73% # Number of insts issued each cycle
system.switch_cpus_1.iq.issued_per_cycle::2    200014213      2.84%     89.57% # Number of insts issued each cycle
system.switch_cpus_1.iq.issued_per_cycle::3    158841319      2.25%     91.82% # Number of insts issued each cycle
system.switch_cpus_1.iq.issued_per_cycle::4    151202683      2.15%     93.97% # Number of insts issued each cycle
system.switch_cpus_1.iq.issued_per_cycle::5    141892481      2.01%     95.98% # Number of insts issued each cycle
system.switch_cpus_1.iq.issued_per_cycle::6    141522722      2.01%     97.99% # Number of insts issued each cycle
system.switch_cpus_1.iq.issued_per_cycle::7     82694963      1.17%     99.16% # Number of insts issued each cycle
system.switch_cpus_1.iq.issued_per_cycle::8     58995285      0.84%    100.00% # Number of insts issued each cycle
system.switch_cpus_1.iq.issued_per_cycle::overflows            0      0.00%    100.00% # Number of insts issued each cycle
system.switch_cpus_1.iq.issued_per_cycle::min_value            0                       # Number of insts issued each cycle
system.switch_cpus_1.iq.issued_per_cycle::max_value            8                       # Number of insts issued each cycle
system.switch_cpus_1.iq.issued_per_cycle::total   7045605304                       # Number of insts issued each cycle
system.switch_cpus_1.iq.rate                 0.626887                       # Inst issue rate
system.switch_cpus_1.iq.vec_alu_accesses            0                       # Number of vector alu accesses
system.switch_cpus_1.iq.vec_inst_queue_reads            0                       # Number of vector instruction queue reads
system.switch_cpus_1.iq.vec_inst_queue_wakeup_accesses            0                       # Number of vector instruction queue wakeup accesses
system.switch_cpus_1.iq.vec_inst_queue_writes            0                       # Number of vector instruction queue writes
system.switch_cpus_1.itb.rdAccesses                 0                       # TLB accesses on read requests
system.switch_cpus_1.itb.rdMisses                   0                       # TLB misses on read requests
system.switch_cpus_1.itb.wrAccesses         496610722                       # TLB accesses on write requests
system.switch_cpus_1.itb.wrMisses               14488                       # TLB misses on write requests
system.switch_cpus_1.memDep0.conflictingLoads     93788976                       # Number of conflicting loads.
system.switch_cpus_1.memDep0.conflictingStores     95585248                       # Number of conflicting stores.
system.switch_cpus_1.memDep0.insertedLoads   1005449349                       # Number of loads inserted to the mem dependence unit.
system.switch_cpus_1.memDep0.insertedStores    276860185                       # Number of stores inserted to the mem dependence unit.
system.switch_cpus_1.misc_regfile_reads    2325644785                       # number of misc regfile reads
system.switch_cpus_1.numCycles             7045907770                       # number of cpu cycles simulated
system.switch_cpus_1.numWorkItemsCompleted            0                       # number of work items this cpu completed
system.switch_cpus_1.numWorkItemsStarted            0                       # number of work items this cpu started
system.switch_cpus_1.rename.BlockCycles    5006227013                       # Number of cycles rename is blocking
system.switch_cpus_1.rename.CommittedMaps   2122688750                       # Number of HB maps that are committed
system.switch_cpus_1.rename.IQFullEvents    381486810                       # Number of times rename has blocked due to IQ full
system.switch_cpus_1.rename.IdleCycles      345338159                       # Number of cycles rename is idle
system.switch_cpus_1.rename.LQFullEvents    557087521                       # Number of times rename has blocked due to LQ full
system.switch_cpus_1.rename.ROBFullEvents     59280780                       # Number of times rename has blocked due to ROB full
system.switch_cpus_1.rename.RenameLookups  15599361269                       # Number of register rename lookups that rename has made
system.switch_cpus_1.rename.RenamedInsts   6071248191                       # Number of instructions processed by rename
system.switch_cpus_1.rename.RenamedOperands   7117064154                       # Number of destination operands rename has renamed
system.switch_cpus_1.rename.RunCycles       731352413                       # Number of cycles rename is running
system.switch_cpus_1.rename.SQFullEvents      9263825                       # Number of times rename has blocked due to SQ full
system.switch_cpus_1.rename.SquashCycles     82661458                       # Number of cycles rename is squashing
system.switch_cpus_1.rename.UnblockCycles    880026255                       # Number of cycles rename is unblocking
system.switch_cpus_1.rename.UndoneMaps     4994375346                       # Number of HB maps that are undone due to squashing
system.switch_cpus_1.rename.int_rename_lookups   8472077539                       # Number of integer rename lookups
system.switch_cpus_1.rename.serializeStallCycles            0                       # count of cycles rename stalled for serializing inst
system.switch_cpus_1.rename.serializingInsts            0                       # count of serializing insts renamed
system.switch_cpus_1.rename.skidInsts       972251315                       # count of insts added to the skid buffer
system.switch_cpus_1.rename.tempSerializingInsts            0                       # count of temporary serializing insts renamed
system.switch_cpus_1.rob.rob_reads        11669627338                       # The number of ROB reads
system.switch_cpus_1.rob.rob_writes       11118508441                       # The number of ROB writes
system.switch_cpus_1.timesIdled                  2537                       # Number of times that the entire CPU went into an idle state and unscheduled itself
system.tol2bus.snoop_filter.hit_multi_requests           86                       # Number of requests hitting in the snoop filter with multiple (>1) holders of the requested data.
system.tol2bus.snoop_filter.hit_multi_snoops            0                       # Number of snoops hitting in the snoop filter with multiple (>1) holders of the requested data.
system.tol2bus.snoop_filter.hit_single_requests    106238417                       # Number of requests hitting in the snoop filter with a single holder of the requested data.
system.tol2bus.snoop_filter.hit_single_snoops        99755                       # Number of snoops hitting in the snoop filter with a single holder of the requested data.
system.tol2bus.snoop_filter.tot_requests    210961580                       # Total number of requests made to the snoop filter.
system.tol2bus.snoop_filter.tot_snoops          99755                       # Total number of snoops made to the snoop filter.
system.tol3bus.snoop_filter.hit_multi_requests            0                       # Number of requests hitting in the snoop filter with multiple (>1) holders of the requested data.
system.tol3bus.snoop_filter.hit_multi_snoops            0                       # Number of snoops hitting in the snoop filter with multiple (>1) holders of the requested data.
system.tol3bus.snoop_filter.hit_single_requests     74630920                       # Number of requests hitting in the snoop filter with a single holder of the requested data.
system.tol3bus.snoop_filter.hit_single_snoops       100105                       # Number of snoops hitting in the snoop filter with a single holder of the requested data.
system.tol3bus.snoop_filter.tot_requests    149260618                       # Total number of requests made to the snoop filter.
system.tol3bus.snoop_filter.tot_snoops         100105                       # Total number of snoops made to the snoop filter.
system.membus.trans_dist::ReadResp           62269542                       # Transaction distribution
system.membus.trans_dist::WritebackDirty     16265506                       # Transaction distribution
system.membus.trans_dist::CleanEvict         47153753                       # Transaction distribution
system.membus.trans_dist::ReadExReq           1149650                       # Transaction distribution
system.membus.trans_dist::ReadExResp          1149650                       # Transaction distribution
system.membus.trans_dist::ReadSharedReq      62269542                       # Transaction distribution
system.membus.pkt_count_system.l3.mem_side::system.mem_ctrls.port    190257643                       # Packet count per connected master and slave (bytes)
system.membus.pkt_count_system.l3.mem_side::total    190257643                       # Packet count per connected master and slave (bytes)
system.membus.pkt_count::total              190257643                       # Packet count per connected master and slave (bytes)
system.membus.pkt_size_system.l3.mem_side::system.mem_ctrls.port   5099820672                       # Cumulative packet size per connected master and slave (bytes)
system.membus.pkt_size_system.l3.mem_side::total   5099820672                       # Cumulative packet size per connected master and slave (bytes)
system.membus.pkt_size::total              5099820672                       # Cumulative packet size per connected master and slave (bytes)
system.membus.snoops                                0                       # Total snoops (count)
system.membus.snoopTraffic                          0                       # Total snoop traffic (bytes)
system.membus.snoop_fanout::samples          63419192                       # Request fanout histogram
system.membus.snoop_fanout::mean                    0                       # Request fanout histogram
system.membus.snoop_fanout::stdev                   0                       # Request fanout histogram
system.membus.snoop_fanout::underflows              0      0.00%      0.00% # Request fanout histogram
system.membus.snoop_fanout::0                63419192    100.00%    100.00% # Request fanout histogram
system.membus.snoop_fanout::1                       0      0.00%    100.00% # Request fanout histogram
system.membus.snoop_fanout::overflows               0      0.00%    100.00% # Request fanout histogram
system.membus.snoop_fanout::min_value               0                       # Request fanout histogram
system.membus.snoop_fanout::max_value               0                       # Request fanout histogram
system.membus.snoop_fanout::total            63419192                       # Request fanout histogram
system.membus.reqLayer2.occupancy        207383886000                       # Layer occupancy (ticks)
system.membus.reqLayer2.utilization               5.9                       # Layer utilization (%)
system.membus.respLayer1.occupancy       346680466000                       # Layer occupancy (ticks)
system.membus.respLayer1.utilization              9.8                       # Layer utilization (%)
system.membus.power_state.pwrStateResidencyTicks::UNDEFINED 5343108747000                       # Cumulative time (in ticks) in various power states
system.switch_cpus_1.dtb.walker.power_state.pwrStateResidencyTicks::UNDEFINED 5343108747000                       # Cumulative time (in ticks) in various power states
system.switch_cpus_1.itb.walker.power_state.pwrStateResidencyTicks::UNDEFINED 5343108747000                       # Cumulative time (in ticks) in various power states
system.switch_cpus_1.power_state.pwrStateResidencyTicks::OFF 5343108747000                       # Cumulative time (in ticks) in various power states
system.switch_cpus.dtb.walker.power_state.pwrStateResidencyTicks::UNDEFINED 5343108747000                       # Cumulative time (in ticks) in various power states
system.switch_cpus.itb.walker.power_state.pwrStateResidencyTicks::UNDEFINED 5343108747000                       # Cumulative time (in ticks) in various power states
system.switch_cpus.power_state.numTransitions            1                       # Number of power state transitions
system.switch_cpus.power_state.pwrStateResidencyTicks::OFF 5343108747000                       # Cumulative time (in ticks) in various power states
system.tol2bus.trans_dist::ReadResp         100341225                       # Transaction distribution
system.tol2bus.trans_dist::WritebackDirty     50120128                       # Transaction distribution
system.tol2bus.trans_dist::WritebackClean            3                       # Transaction distribution
system.tol2bus.trans_dist::CleanEvict       129375459                       # Transaction distribution
system.tol2bus.trans_dist::UpgradeReq         1515255                       # Transaction distribution
system.tol2bus.trans_dist::UpgradeResp        1515255                       # Transaction distribution
system.tol2bus.trans_dist::ReadExReq          4381937                       # Transaction distribution
system.tol2bus.trans_dist::ReadExResp         4381937                       # Transaction distribution
system.tol2bus.trans_dist::ReadCleanReq             3                       # Transaction distribution
system.tol2bus.trans_dist::ReadSharedReq    100341223                       # Transaction distribution
system.tol2bus.pkt_count_system.cpu.icache.mem_side::system.l2.cpu_side            9                       # Packet count per connected master and slave (bytes)
system.tol2bus.pkt_count_system.cpu.dcache.mem_side::system.l2.cpu_side    317199988                       # Packet count per connected master and slave (bytes)
system.tol2bus.pkt_count::total             317199997                       # Packet count per connected master and slave (bytes)
system.tol2bus.pkt_size_system.cpu.icache.mem_side::system.l2.cpu_side          384                       # Cumulative packet size per connected master and slave (bytes)
system.tol2bus.pkt_size_system.cpu.dcache.mem_side::system.l2.cpu_side   8610587712                       # Cumulative packet size per connected master and slave (bytes)
system.tol2bus.pkt_size::total             8610588096                       # Cumulative packet size per connected master and slave (bytes)
system.tol2bus.snoops                        74772428                       # Total snoops (count)
system.tol2bus.snoopTraffic                1299382656                       # Total snoop traffic (bytes)
system.tol2bus.snoop_fanout::samples        181010846                       # Request fanout histogram
system.tol2bus.snoop_fanout::mean            0.000552                       # Request fanout histogram
system.tol2bus.snoop_fanout::stdev           0.023479                       # Request fanout histogram
system.tol2bus.snoop_fanout::underflows             0      0.00%      0.00% # Request fanout histogram
system.tol2bus.snoop_fanout::0              180911005     99.94%     99.94% # Request fanout histogram
system.tol2bus.snoop_fanout::1                  99841      0.06%    100.00% # Request fanout histogram
system.tol2bus.snoop_fanout::2                      0      0.00%    100.00% # Request fanout histogram
system.tol2bus.snoop_fanout::3                      0      0.00%    100.00% # Request fanout histogram
system.tol2bus.snoop_fanout::4                      0      0.00%    100.00% # Request fanout histogram
system.tol2bus.snoop_fanout::overflows              0      0.00%    100.00% # Request fanout histogram
system.tol2bus.snoop_fanout::min_value              0                       # Request fanout histogram
system.tol2bus.snoop_fanout::max_value              1                       # Request fanout histogram
system.tol2bus.snoop_fanout::total          181010846                       # Request fanout histogram
system.tol2bus.reqLayer0.occupancy       135298067000                       # Layer occupancy (ticks)
system.tol2bus.reqLayer0.utilization              3.8                       # Layer utilization (%)
system.tol2bus.respLayer1.occupancy      157842366000                       # Layer occupancy (ticks)
system.tol2bus.respLayer1.utilization             4.5                       # Layer utilization (%)
system.tol2bus.respLayer0.occupancy              4500                       # Layer occupancy (ticks)
system.tol2bus.respLayer0.utilization             0.0                       # Layer utilization (%)
system.tol2bus.power_state.pwrStateResidencyTicks::UNDEFINED 5343108747000                       # Cumulative time (in ticks) in various power states
system.voltage_domain.voltage                       1                       # Voltage in Volts
system.clk_domain.clock                          1000                       # Clock period in ticks
system.l2.demand_hits::.switch_cpus_1.data     30093379                       # number of demand (read+write) hits
system.l2.demand_hits::total                 30093379                       # number of demand (read+write) hits
system.l2.overall_hits::.switch_cpus_1.data     30093379                       # number of overall hits
system.l2.overall_hits::total                30093379                       # number of overall hits
system.l2.demand_misses::.switch_cpus_1.inst            3                       # number of demand (read+write) misses
system.l2.demand_misses::.switch_cpus_1.data     74629781                       # number of demand (read+write) misses
system.l2.demand_misses::total               74629784                       # number of demand (read+write) misses
system.l2.overall_misses::.switch_cpus_1.inst            3                       # number of overall misses
system.l2.overall_misses::.switch_cpus_1.data     74629781                       # number of overall misses
system.l2.overall_misses::total              74629784                       # number of overall misses
system.l2.demand_miss_latency::.switch_cpus_1.inst       311500                       # number of demand (read+write) miss cycles
system.l2.demand_miss_latency::.switch_cpus_1.data 7225529707500                       # number of demand (read+write) miss cycles
system.l2.demand_miss_latency::total     7225530019000                       # number of demand (read+write) miss cycles
system.l2.overall_miss_latency::.switch_cpus_1.inst       311500                       # number of overall miss cycles
system.l2.overall_miss_latency::.switch_cpus_1.data 7225529707500                       # number of overall miss cycles
system.l2.overall_miss_latency::total    7225530019000                       # number of overall miss cycles
system.l2.demand_accesses::.switch_cpus_1.inst            3                       # number of demand (read+write) accesses
system.l2.demand_accesses::.switch_cpus_1.data    104723160                       # number of demand (read+write) accesses
system.l2.demand_accesses::total            104723163                       # number of demand (read+write) accesses
system.l2.overall_accesses::.switch_cpus_1.inst            3                       # number of overall (read+write) accesses
system.l2.overall_accesses::.switch_cpus_1.data    104723160                       # number of overall (read+write) accesses
system.l2.overall_accesses::total           104723163                       # number of overall (read+write) accesses
system.l2.demand_miss_rate::.switch_cpus_1.inst            1                       # miss rate for demand accesses
system.l2.demand_miss_rate::.switch_cpus_1.data     0.712639                       # miss rate for demand accesses
system.l2.demand_miss_rate::total            0.712639                       # miss rate for demand accesses
system.l2.overall_miss_rate::.switch_cpus_1.inst            1                       # miss rate for overall accesses
system.l2.overall_miss_rate::.switch_cpus_1.data     0.712639                       # miss rate for overall accesses
system.l2.overall_miss_rate::total           0.712639                       # miss rate for overall accesses
system.l2.demand_avg_miss_latency::.switch_cpus_1.inst 103833.333333                       # average overall miss latency
system.l2.demand_avg_miss_latency::.switch_cpus_1.data 96818.315834                       # average overall miss latency
system.l2.demand_avg_miss_latency::total 96818.316116                       # average overall miss latency
system.l2.overall_avg_miss_latency::.switch_cpus_1.inst 103833.333333                       # average overall miss latency
[...]
system.cpu.dcache.demand_accesses::.switch_cpus.data     43513985                       # number of demand (read+write) accesses
system.cpu.dcache.demand_accesses::.switch_cpus_1.data    784076477                       # number of demand (read+write) accesses
system.cpu.dcache.demand_accesses::total   1218161626                       # number of demand (read+write) accesses
system.cpu.dcache.overall_accesses::.cpu.data    390571164                       # number of overall (read+write) accesses
system.cpu.dcache.overall_accesses::.switch_cpus.data     43513985                       # number of overall (read+write) accesses
system.cpu.dcache.overall_accesses::.switch_cpus_1.data    784076477                       # number of overall (read+write) accesses
system.cpu.dcache.overall_accesses::total   1218161626                       # number of overall (read+write) accesses
system.cpu.dcache.demand_miss_rate::.cpu.data     0.139202                       # miss rate for demand accesses
system.cpu.dcache.demand_miss_rate::.switch_cpus.data     0.238513                       # miss rate for demand accesses
system.cpu.dcache.demand_miss_rate::.switch_cpus_1.data     0.337821                       # miss rate for demand accesses
system.cpu.dcache.demand_miss_rate::total     0.270592                       # miss rate for demand accesses
system.cpu.dcache.overall_miss_rate::.cpu.data     0.139202                       # miss rate for overall accesses
system.cpu.dcache.overall_miss_rate::.switch_cpus.data     0.238513                       # miss rate for overall accesses
system.cpu.dcache.overall_miss_rate::.switch_cpus_1.data     0.337821                       # miss rate for overall accesses
system.cpu.dcache.overall_miss_rate::total     0.270592                       # miss rate for overall accesses
system.cpu.dcache.demand_avg_miss_latency::.switch_cpus.data 65600.038521                       # average overall miss latency
system.cpu.dcache.demand_avg_miss_latency::.switch_cpus_1.data 71055.029344                       # average overall miss latency
system.cpu.dcache.demand_avg_miss_latency::total 59163.439462                       # average overall miss latency
system.cpu.dcache.overall_avg_miss_latency::.switch_cpus.data 65600.038521                       # average overall miss latency
system.cpu.dcache.overall_avg_miss_latency::.switch_cpus_1.data 71055.029344                       # average overall miss latency
system.cpu.dcache.overall_avg_miss_latency::total 59163.439462                       # average overall miss latency
system.cpu.dcache.blocked_cycles::no_mshrs   1359363106                       # number of cycles access was blocked
system.cpu.dcache.blocked_cycles::no_targets      7349948                       # number of cycles access was blocked
system.cpu.dcache.blocked::no_mshrs          38104656                       # number of cycles access was blocked
system.cpu.dcache.blocked::no_targets           70760                       # number of cycles access was blocked
system.cpu.dcache.avg_blocked_cycles::no_mshrs    35.674462                       # average number of cycles each access was blocked
system.cpu.dcache.avg_blocked_cycles::no_targets   103.871509                       # average number of cycles each access was blocked
system.cpu.dcache.writebacks::.writebacks     46615685                       # number of writebacks
system.cpu.dcache.writebacks::total          46615685                       # number of writebacks
system.cpu.dcache.demand_mshr_hits::.switch_cpus_1.data    158639799                       # number of demand (read+write) MSHR hits
system.cpu.dcache.demand_mshr_hits::total    158639799                       # number of demand (read+write) MSHR hits
system.cpu.dcache.overall_mshr_hits::.switch_cpus_1.data    158639799                       # number of overall MSHR hits
system.cpu.dcache.overall_mshr_hits::total    158639799                       # number of overall MSHR hits
system.cpu.dcache.demand_mshr_misses::.switch_cpus.data     10378637                       # number of demand (read+write) MSHR misses
system.cpu.dcache.demand_mshr_misses::.switch_cpus_1.data    106238037                       # number of demand (read+write) MSHR misses
system.cpu.dcache.demand_mshr_misses::total    116616674                       # number of demand (read+write) MSHR misses
system.cpu.dcache.overall_mshr_misses::.switch_cpus.data     10378637                       # number of overall MSHR misses
system.cpu.dcache.overall_mshr_misses::.switch_cpus_1.data    106238037                       # number of overall MSHR misses
system.cpu.dcache.overall_mshr_misses::total    116616674                       # number of overall MSHR misses
system.cpu.dcache.demand_mshr_miss_latency::.switch_cpus.data 675649668500                       # number of demand (read+write) MSHR miss cycles
system.cpu.dcache.demand_mshr_miss_latency::.switch_cpus_1.data 7522858188584                       # number of demand (read+write) MSHR miss cycles
system.cpu.dcache.demand_mshr_miss_latency::total 8198507857084                       # number of demand (read+write) MSHR miss cycles
system.cpu.dcache.overall_mshr_miss_latency::.switch_cpus.data 675649668500                       # number of overall MSHR miss cycles
system.cpu.dcache.overall_mshr_miss_latency::.switch_cpus_1.data 7522858188584                       # number of overall MSHR miss cycles
system.cpu.dcache.overall_mshr_miss_latency::total 8198507857084                       # number of overall MSHR miss cycles
system.cpu.dcache.demand_mshr_miss_rate::.switch_cpus.data     0.238513                       # mshr miss rate for demand accesses
system.cpu.dcache.demand_mshr_miss_rate::.switch_cpus_1.data     0.135494                       # mshr miss rate for demand accesses
system.cpu.dcache.demand_mshr_miss_rate::total     0.095732                       # mshr miss rate for demand accesses
system.cpu.dcache.overall_mshr_miss_rate::.switch_cpus.data     0.238513                       # mshr miss rate for overall accesses
system.cpu.dcache.overall_mshr_miss_rate::.switch_cpus_1.data     0.135494                       # mshr miss rate for overall accesses
system.cpu.dcache.overall_mshr_miss_rate::total     0.095732                       # mshr miss rate for overall accesses
system.cpu.dcache.demand_avg_mshr_miss_latency::.switch_cpus.data 65100.038521                       # average overall mshr miss latency
system.cpu.dcache.demand_avg_mshr_miss_latency::.switch_cpus_1.data 70811.344044                       # average overall mshr miss latency
system.cpu.dcache.demand_avg_mshr_miss_latency::total 70303.049949                       # average overall mshr miss latency
system.cpu.dcache.overall_avg_mshr_miss_latency::.switch_cpus.data 65100.038521                       # average overall mshr miss latency
system.cpu.dcache.overall_avg_mshr_miss_latency::.switch_cpus_1.data 70811.344044                       # average overall mshr miss latency
system.cpu.dcache.overall_avg_mshr_miss_latency::total 70303.049949                       # average overall mshr miss latency
system.cpu.dcache.replacements              169290798                       # number of replacements
system.cpu.dcache.ReadReq_hits::.cpu.data    234488627                       # number of ReadReq hits
system.cpu.dcache.ReadReq_hits::.switch_cpus.data     26813871                       # number of ReadReq hits
system.cpu.dcache.ReadReq_hits::.switch_cpus_1.data    454102590                       # number of ReadReq hits
system.cpu.dcache.ReadReq_hits::total       715405088                       # number of ReadReq hits
system.cpu.dcache.ReadReq_misses::.cpu.data     52363197                       # number of ReadReq misses
system.cpu.dcache.ReadReq_misses::.switch_cpus.data      9821521                       # number of ReadReq misses
system.cpu.dcache.ReadReq_misses::.switch_cpus_1.data    258975111                       # number of ReadReq misses
system.cpu.dcache.ReadReq_misses::total     321159829                       # number of ReadReq misses
system.cpu.dcache.ReadReq_miss_latency::.switch_cpus.data 669396490000                       # number of ReadReq miss cycles
system.cpu.dcache.ReadReq_miss_latency::.switch_cpus_1.data 18671692826500                       # number of ReadReq miss cycles
system.cpu.dcache.ReadReq_miss_latency::total 19341089316500                       # number of ReadReq miss cycles
system.cpu.dcache.ReadReq_accesses::.cpu.data    286851824                       # number of ReadReq accesses(hits+misses)
system.cpu.dcache.ReadReq_accesses::.switch_cpus.data     36635392                       # number of ReadReq accesses(hits+misses)
system.cpu.dcache.ReadReq_accesses::.switch_cpus_1.data    713077701                       # number of ReadReq accesses(hits+misses)
system.cpu.dcache.ReadReq_accesses::total   1036564917                       # number of ReadReq accesses(hits+misses)
system.cpu.dcache.ReadReq_miss_rate::.cpu.data     0.182544                       # miss rate for ReadReq accesses
system.cpu.dcache.ReadReq_miss_rate::.switch_cpus.data     0.268088                       # miss rate for ReadReq accesses
system.cpu.dcache.ReadReq_miss_rate::.switch_cpus_1.data     0.363179                       # miss rate for ReadReq accesses
system.cpu.dcache.ReadReq_miss_rate::total     0.309831                       # miss rate for ReadReq accesses
system.cpu.dcache.ReadReq_avg_miss_latency::.switch_cpus.data 68156.092116                       # average ReadReq miss latency
system.cpu.dcache.ReadReq_avg_miss_latency::.switch_cpus_1.data 72098.406501                       # average ReadReq miss latency
system.cpu.dcache.ReadReq_avg_miss_latency::total 60222.629264                       # average ReadReq miss latency
system.cpu.dcache.ReadReq_mshr_hits::.switch_cpus_1.data    158630351                       # number of ReadReq MSHR hits
system.cpu.dcache.ReadReq_mshr_hits::total    158630351                       # number of ReadReq MSHR hits
system.cpu.dcache.ReadReq_mshr_misses::.switch_cpus.data      9821521                       # number of ReadReq MSHR misses
system.cpu.dcache.ReadReq_mshr_misses::.switch_cpus_1.data    100344760                       # number of ReadReq MSHR misses
system.cpu.dcache.ReadReq_mshr_misses::total    110166281                       # number of ReadReq MSHR misses
system.cpu.dcache.ReadReq_mshr_miss_latency::.switch_cpus.data 664485729500                       # number of ReadReq MSHR miss cycles
system.cpu.dcache.ReadReq_mshr_miss_latency::.switch_cpus_1.data 7376815328500                       # number of ReadReq MSHR miss cycles
system.cpu.dcache.ReadReq_mshr_miss_latency::total 8041301058000                       # number of ReadReq MSHR miss cycles
system.cpu.dcache.ReadReq_mshr_miss_rate::.switch_cpus.data     0.268088                       # mshr miss rate for ReadReq accesses
system.cpu.dcache.ReadReq_mshr_miss_rate::.switch_cpus_1.data     0.140721                       # mshr miss rate for ReadReq accesses
system.cpu.dcache.ReadReq_mshr_miss_rate::total     0.106280                       # mshr miss rate for ReadReq accesses
system.cpu.dcache.ReadReq_avg_mshr_miss_latency::.switch_cpus.data 67656.092116                       # average ReadReq mshr miss latency
system.cpu.dcache.ReadReq_avg_mshr_miss_latency::.switch_cpus_1.data 73514.703992                       # average ReadReq mshr miss latency
system.cpu.dcache.ReadReq_avg_mshr_miss_latency::total 72992.398264                       # average ReadReq mshr miss latency
system.cpu.dcache.WriteReq_hits::.cpu.data    101714134                       # number of WriteReq hits
system.cpu.dcache.WriteReq_hits::.switch_cpus.data      6321477                       # number of WriteReq hits
system.cpu.dcache.WriteReq_hits::.switch_cpus_1.data     65096051                       # number of WriteReq hits
system.cpu.dcache.WriteReq_hits::total      173131662                       # number of WriteReq hits
system.cpu.dcache.WriteReq_misses::.cpu.data      2005206                       # number of WriteReq misses
system.cpu.dcache.WriteReq_misses::.switch_cpus.data       557116                       # number of WriteReq misses
system.cpu.dcache.WriteReq_misses::.switch_cpus_1.data      5902725                       # number of WriteReq misses
system.cpu.dcache.WriteReq_misses::total      8465047                       # number of WriteReq misses
system.cpu.dcache.WriteReq_miss_latency::.switch_cpus.data  11442497000                       # number of WriteReq miss cycles
system.cpu.dcache.WriteReq_miss_latency::.switch_cpus_1.data 149209583037                       # number of WriteReq miss cycles
system.cpu.dcache.WriteReq_miss_latency::total 160652080037                       # number of WriteReq miss cycles
system.cpu.dcache.WriteReq_accesses::.cpu.data    103719340                       # number of WriteReq accesses(hits+misses)
system.cpu.dcache.WriteReq_accesses::.switch_cpus.data      6878593                       # number of WriteReq accesses(hits+misses)
system.cpu.dcache.WriteReq_accesses::.switch_cpus_1.data     70998776                       # number of WriteReq accesses(hits+misses)
system.cpu.dcache.WriteReq_accesses::total    181596709                       # number of WriteReq accesses(hits+misses)
system.cpu.dcache.WriteReq_miss_rate::.cpu.data     0.019333                       # miss rate for WriteReq accesses
system.cpu.dcache.WriteReq_miss_rate::.switch_cpus.data     0.080993                       # miss rate for WriteReq accesses
system.cpu.dcache.WriteReq_miss_rate::.switch_cpus_1.data     0.083138                       # miss rate for WriteReq accesses
system.cpu.dcache.WriteReq_miss_rate::total     0.046615                       # miss rate for WriteReq accesses
system.cpu.dcache.WriteReq_avg_miss_latency::.switch_cpus.data 20538.805204                       # average WriteReq miss latency
system.cpu.dcache.WriteReq_avg_miss_latency::.switch_cpus_1.data 25278.084789                       # average WriteReq miss latency
system.cpu.dcache.WriteReq_avg_miss_latency::total 18978.285654                       # average WriteReq miss latency
system.cpu.dcache.WriteReq_mshr_hits::.switch_cpus_1.data         9448                       # number of WriteReq MSHR hits
system.cpu.dcache.WriteReq_mshr_hits::total         9448                       # number of WriteReq MSHR hits
system.cpu.dcache.WriteReq_mshr_misses::.switch_cpus.data       557116                       # number of WriteReq MSHR misses
system.cpu.dcache.WriteReq_mshr_misses::.switch_cpus_1.data      5893277                       # number of WriteReq MSHR misses
system.cpu.dcache.WriteReq_mshr_misses::total      6450393                       # number of WriteReq MSHR misses
system.cpu.dcache.WriteReq_mshr_miss_latency::.switch_cpus.data  11163939000                       # number of WriteReq MSHR miss cycles
system.cpu.dcache.WriteReq_mshr_miss_latency::.switch_cpus_1.data 146042860084                       # number of WriteReq MSHR miss cycles
system.cpu.dcache.WriteReq_mshr_miss_latency::total 157206799084                       # number of WriteReq MSHR miss cycles
system.cpu.dcache.WriteReq_mshr_miss_rate::.switch_cpus.data     0.080993                       # mshr miss rate for WriteReq accesses
system.cpu.dcache.WriteReq_mshr_miss_rate::.switch_cpus_1.data     0.083005                       # mshr miss rate for WriteReq accesses
system.cpu.dcache.WriteReq_mshr_miss_rate::total     0.035520                       # mshr miss rate for WriteReq accesses
system.cpu.dcache.WriteReq_avg_mshr_miss_latency::.switch_cpus.data 20038.805204                       # average WriteReq mshr miss latency
system.cpu.dcache.WriteReq_avg_mshr_miss_latency::.switch_cpus_1.data 24781.265175                       # average WriteReq mshr miss latency
system.cpu.dcache.WriteReq_avg_mshr_miss_latency::total 24371.662174                       # average WriteReq mshr miss latency
system.cpu.dcache.power_state.pwrStateResidencyTicks::UNDEFINED 5343108747000                       # Cumulative time (in ticks) in various power states
system.cpu.dcache.tags.tagsinuse           511.998822                       # Cycle average of tags in use
system.cpu.dcache.tags.total_refs          1059574400                       # Total number of references to valid blocks.
system.cpu.dcache.tags.sampled_refs         169291310                       # Sample count of references to valid blocks.
system.cpu.dcache.tags.avg_refs              6.258882                       # Average number of references to valid blocks.
system.cpu.dcache.tags.warmup_cycle              1500                       # Cycle when the warmup percentage was hit.
system.cpu.dcache.tags.occ_blocks::.cpu.data   101.643967                       # Average occupied blocks per requestor
system.cpu.dcache.tags.occ_blocks::.switch_cpus.data    72.772190                       # Average occupied blocks per requestor
system.cpu.dcache.tags.occ_blocks::.switch_cpus_1.data   337.582664                       # Average occupied blocks per requestor
system.cpu.dcache.tags.occ_percent::.cpu.data     0.198523                       # Average percentage of cache occupancy
system.cpu.dcache.tags.occ_percent::.switch_cpus.data     0.142133                       # Average percentage of cache occupancy
system.cpu.dcache.tags.occ_percent::.switch_cpus_1.data     0.659341                       # Average percentage of cache occupancy
system.cpu.dcache.tags.occ_percent::total     0.999998                       # Average percentage of cache occupancy
system.cpu.dcache.tags.occ_task_id_blocks::1024          512                       # Occupied blocks per task id
system.cpu.dcache.tags.age_task_id_blocks_1024::0          161                       # Occupied blocks per task id
system.cpu.dcache.tags.age_task_id_blocks_1024::1          339                       # Occupied blocks per task id
system.cpu.dcache.tags.age_task_id_blocks_1024::2            6                       # Occupied blocks per task id
system.cpu.dcache.tags.age_task_id_blocks_1024::3            6                       # Occupied blocks per task id
system.cpu.dcache.tags.occ_task_id_percent::1024            1                       # Percentage of cache occupancy per task id
system.cpu.dcache.tags.tag_accesses        5041937814                       # Number of tag accesses
system.cpu.dcache.tags.data_accesses       5041937814                       # Number of data accesses
system.cpu.dcache.tags.cache_friendly               0                       # Number of cache friendly accesses
system.cpu.dcache.tags.cache_averse        1059574400                       # Number of cache averse accesses
system.cpu.dcache.tags.cache_friendly_victims            0                       # Number of cache friendly victims
system.cpu.dcache.tags.cache_averse_victims    169291310                       # Number of cache averse victims
system.cpu.dcache.tags.OPT_hits                     0                       # Number of OPT hits
system.cpu.dcache.tags.OPT_misses                   0                       # Number of OPT misses
system.cpu.dcache.tags.OPT_nan             1218161626                       # Number of OPT nan
system.cpu.dcache.tags.power_state.pwrStateResidencyTicks::UNDEFINED 5343108747000                       # Cumulative time (in ticks) in various power states
system.cpu.power_state.numTransitions               2                       # Number of power state transitions
system.cpu.power_state.pwrStateResidencyTicks::ON 1060722694500                       # Cumulative time (in ticks) in various power states
system.cpu.power_state.pwrStateResidencyTicks::OFF 4282386052500                       # Cumulative time (in ticks) in various power states

---------- End Simulation Statistics   ----------
