
---------- Begin Simulation Statistics ----------
final_tick                               977033475000                       # Number of ticks from beginning of simulation (restored from checkpoints and never reset)
host_inst_rate                                 506325                       # Simulator instruction rate (inst/s)
host_mem_usage                                 857232                       # Number of bytes of host memory used
host_op_rate                                   859386                       # Simulator op (including micro ops) rate (op/s)
host_seconds                                  1876.26                       # Real time elapsed on the host
host_tick_rate                              520733489                       # Simulator tick rate (ticks/s)
sim_freq                                 1000000000000                       # Frequency of simulated ticks
sim_insts                                   950000001                       # Number of instructions simulated
sim_ops                                    1612435443                       # Number of ops (including micro ops) simulated
sim_seconds                                  0.977033                       # Number of seconds simulated
sim_ticks                                977033475000                       # Number of ticks simulated
system.cpu.Branches                         151289747                       # Number of branches fetched
system.cpu.committedInsts                   950000001                       # Number of instructions committed
system.cpu.committedOps                    1612435443                       # Number of ops (including micro ops) committed
system.cpu.dtb.rdAccesses                   304652515                       # TLB accesses on read requests
system.cpu.dtb.rdMisses                       3457264                       # TLB misses on read requests
system.cpu.dtb.wrAccesses                   103417236                       # TLB accesses on write requests
system.cpu.dtb.wrMisses                       2017201                       # TLB misses on write requests
system.cpu.idle_fraction                            0                       # Percentage of idle cycles
system.cpu.itb.rdAccesses                           0                       # TLB accesses on read requests
system.cpu.itb.rdMisses                             0                       # TLB misses on read requests
system.cpu.itb.wrAccesses                  1291631509                       # TLB accesses on write requests
system.cpu.itb.wrMisses                           227                       # TLB misses on write requests
system.cpu.not_idle_fraction                        1                       # Percentage of non-idle cycles
system.cpu.numCycles                       1954066951                       # number of cpu cycles simulated
system.cpu.numWorkItemsCompleted                    0                       # number of work items this cpu completed
system.cpu.numWorkItemsStarted                      0                       # number of work items this cpu started
system.cpu.num_busy_cycles                 1954066951                       # Number of busy cycles
system.cpu.num_cc_register_reads            806805541                       # number of times the CC registers were read
system.cpu.num_cc_register_writes           654709291                       # number of times the CC registers were written
system.cpu.num_conditional_control_insts    128257675                       # number of instructions that are conditional controls
system.cpu.num_fp_alu_accesses                 317227                       # Number of float alu accesses
system.cpu.num_fp_insts                        317227                       # number of float instructions
system.cpu.num_fp_register_reads               317335                       # number of times the floating registers were read
system.cpu.num_fp_register_writes                1083                       # number of times the floating registers were written
system.cpu.num_func_calls                     8038544                       # number of times a function call or return occured
system.cpu.num_idle_cycles                          0                       # Number of idle cycles
system.cpu.num_int_alu_accesses            1610473850                       # Number of integer alu accesses
system.cpu.num_int_insts                   1610473850                       # number of integer instructions
system.cpu.num_int_register_reads          3367100897                       # number of times the integer registers were read
system.cpu.num_int_register_writes         1356470760                       # number of times the integer registers were written
system.cpu.num_load_insts                   304652508                       # Number of load instructions
system.cpu.num_mem_refs                     408056439                       # number of memory refs
system.cpu.num_store_insts                  103403931                       # Number of store instructions
system.cpu.num_vec_alu_accesses                     0                       # Number of vector alu accesses
system.cpu.num_vec_insts                            0                       # number of vector instructions
system.cpu.num_vec_register_reads                   0                       # number of times the vector registers were read
system.cpu.num_vec_register_writes                  0                       # number of times the vector registers were written
system.cpu.op_class::No_OpClass               1963514      0.12%      0.12% # Class of executed instruction
system.cpu.op_class::IntAlu                1202415360     74.57%     74.69% # Class of executed instruction
system.cpu.op_class::IntMult                     1211      0.00%     74.69% # Class of executed instruction
system.cpu.op_class::IntDiv                      1778      0.00%     74.69% # Class of executed instruction
system.cpu.op_class::FloatAdd                     109      0.00%     74.69% # Class of executed instruction
system.cpu.op_class::FloatCmp                       0      0.00%     74.69% # Class of executed instruction
system.cpu.op_class::FloatCvt                     176      0.00%     74.69% # Class of executed instruction
system.cpu.op_class::FloatMult                      0      0.00%     74.69% # Class of executed instruction
system.cpu.op_class::FloatMultAcc                   0      0.00%     74.69% # Class of executed instruction
system.cpu.op_class::FloatDiv                       0      0.00%     74.69% # Class of executed instruction
system.cpu.op_class::FloatMisc                      0      0.00%     74.69% # Class of executed instruction
system.cpu.op_class::FloatSqrt                      0      0.00%     74.69% # Class of executed instruction
system.cpu.op_class::SimdAdd                        0      0.00%     74.69% # Class of executed instruction
system.cpu.op_class::SimdAddAcc                     0      0.00%     74.69% # Class of executed instruction
system.cpu.op_class::SimdAlu                       86      0.00%     74.69% # Class of executed instruction
system.cpu.op_class::SimdCmp                        0      0.00%     74.69% # Class of executed instruction
system.cpu.op_class::SimdCvt                      184      0.00%     74.69% # Class of executed instruction
system.cpu.op_class::SimdMisc                     331      0.00%     74.69% # Class of executed instruction
system.cpu.op_class::SimdMult                       0      0.00%     74.69% # Class of executed instruction
system.cpu.op_class::SimdMultAcc                    0      0.00%     74.69% # Class of executed instruction
system.cpu.op_class::SimdShift                      0      0.00%     74.69% # Class of executed instruction
system.cpu.op_class::SimdShiftAcc                   0      0.00%     74.69% # Class of executed instruction
system.cpu.op_class::SimdDiv                        0      0.00%     74.69% # Class of executed instruction
system.cpu.op_class::SimdSqrt                       0      0.00%     74.69% # Class of executed instruction
system.cpu.op_class::SimdFloatAdd                   0      0.00%     74.69% # Class of executed instruction
system.cpu.op_class::SimdFloatAlu                   0      0.00%     74.69% # Class of executed instruction
system.cpu.op_class::SimdFloatCmp                   0      0.00%     74.69% # Class of executed instruction
system.cpu.op_class::SimdFloatCvt                   0      0.00%     74.69% # Class of executed instruction
system.cpu.op_class::SimdFloatDiv                   0      0.00%     74.69% # Class of executed instruction
system.cpu.op_class::SimdFloatMisc                  0      0.00%     74.69% # Class of executed instruction
system.cpu.op_class::SimdFloatMult                  0      0.00%     74.69% # Class of executed instruction
system.cpu.op_class::SimdFloatMultAcc               0      0.00%     74.69% # Class of executed instruction
system.cpu.op_class::SimdFloatSqrt                  0      0.00%     74.69% # Class of executed instruction
system.cpu.op_class::SimdReduceAdd                  0      0.00%     74.69% # Class of executed instruction
system.cpu.op_class::SimdReduceAlu                  0      0.00%     74.69% # Class of executed instruction
system.cpu.op_class::SimdReduceCmp                  0      0.00%     74.69% # Class of executed instruction
system.cpu.op_class::SimdFloatReduceAdd             0      0.00%     74.69% # Class of executed instruction
system.cpu.op_class::SimdFloatReduceCmp             0      0.00%     74.69% # Class of executed instruction
system.cpu.op_class::SimdAes                        0      0.00%     74.69% # Class of executed instruction
system.cpu.op_class::SimdAesMix                     0      0.00%     74.69% # Class of executed instruction
system.cpu.op_class::SimdSha1Hash                   0      0.00%     74.69% # Class of executed instruction
system.cpu.op_class::SimdSha1Hash2                  0      0.00%     74.69% # Class of executed instruction
system.cpu.op_class::SimdSha256Hash                 0      0.00%     74.69% # Class of executed instruction
system.cpu.op_class::SimdSha256Hash2                0      0.00%     74.69% # Class of executed instruction
system.cpu.op_class::SimdShaSigma2                  0      0.00%     74.69% # Class of executed instruction
system.cpu.op_class::SimdShaSigma3                  0      0.00%     74.69% # Class of executed instruction
system.cpu.op_class::SimdPredAlu                    0      0.00%     74.69% # Class of executed instruction
system.cpu.op_class::MemRead                304652048     18.89%     93.59% # Class of executed instruction
system.cpu.op_class::MemWrite               103088147      6.39%     99.98% # Class of executed instruction
system.cpu.op_class::FloatMemRead                 460      0.00%     99.98% # Class of executed instruction
system.cpu.op_class::FloatMemWrite             315784      0.02%    100.00% # Class of executed instruction
system.cpu.op_class::IprAccess                      0      0.00%    100.00% # Class of executed instruction
system.cpu.op_class::InstPrefetch                   0      0.00%    100.00% # Class of executed instruction
system.cpu.op_class::total                 1612439188                       # Class of executed instruction
system.cpu.workload.numSyscalls                    58                       # Number of system calls
system.membus.snoop_filter.hit_multi_requests            0                       # Number of requests hitting in the snoop filter with multiple (>1) holders of the requested data.
system.membus.snoop_filter.hit_multi_snoops            0                       # Number of snoops hitting in the snoop filter with multiple (>1) holders of the requested data.
system.membus.snoop_filter.hit_single_requests      1086005                       # Number of requests hitting in the snoop filter with a single holder of the requested data.
system.membus.snoop_filter.hit_single_snoops            0                       # Number of snoops hitting in the snoop filter with a single holder of the requested data.
system.membus.snoop_filter.tot_requests       2205219                       # Total number of requests made to the snoop filter.
system.membus.snoop_filter.tot_snoops               0                       # Total number of snoops made to the snoop filter.
system.tol2bus.snoop_filter.hit_multi_requests            2                       # Number of requests hitting in the snoop filter with multiple (>1) holders of the requested data.
system.tol2bus.snoop_filter.hit_multi_snoops            0                       # Number of snoops hitting in the snoop filter with multiple (>1) holders of the requested data.
system.tol2bus.snoop_filter.hit_single_requests     12866121                       # Number of requests hitting in the snoop filter with a single holder of the requested data.
system.tol2bus.snoop_filter.hit_single_snoops         8628                       # Number of snoops hitting in the snoop filter with a single holder of the requested data.
system.tol2bus.snoop_filter.tot_requests     25733266                       # Total number of requests made to the snoop filter.
system.tol2bus.snoop_filter.tot_snoops           8628                       # Total number of snoops made to the snoop filter.
system.tol3bus.snoop_filter.hit_multi_requests            0                       # Number of requests hitting in the snoop filter with multiple (>1) holders of the requested data.
system.tol3bus.snoop_filter.hit_multi_snoops            0                       # Number of snoops hitting in the snoop filter with multiple (>1) holders of the requested data.
system.tol3bus.snoop_filter.hit_single_requests      6628304                       # Number of requests hitting in the snoop filter with a single holder of the requested data.
system.tol3bus.snoop_filter.hit_single_snoops         2971                       # Number of snoops hitting in the snoop filter with a single holder of the requested data.
system.tol3bus.snoop_filter.tot_requests     13261326                       # Total number of requests made to the snoop filter.
system.tol3bus.snoop_filter.tot_snoops           2971                       # Total number of snoops made to the snoop filter.
system.membus.trans_dist::ReadResp             533098                       # Transaction distribution
system.membus.trans_dist::WritebackDirty       707369                       # Transaction distribution
system.membus.trans_dist::CleanEvict           378636                       # Transaction distribution
system.membus.trans_dist::ReadExReq            586116                       # Transaction distribution
system.membus.trans_dist::ReadExResp           586116                       # Transaction distribution
system.membus.trans_dist::ReadSharedReq        533098                       # Transaction distribution
system.membus.pkt_count_system.l3.mem_side::system.mem_ctrls.port      3324433                       # Packet count per connected master and slave (bytes)
system.membus.pkt_count_system.l3.mem_side::total      3324433                       # Packet count per connected master and slave (bytes)
system.membus.pkt_count::total                3324433                       # Packet count per connected master and slave (bytes)
system.membus.pkt_size_system.l3.mem_side::system.mem_ctrls.port    116901312                       # Cumulative packet size per connected master and slave (bytes)
system.membus.pkt_size_system.l3.mem_side::total    116901312                       # Cumulative packet size per connected master and slave (bytes)
system.membus.pkt_size::total               116901312                       # Cumulative packet size per connected master and slave (bytes)
system.membus.snoops                                0                       # Total snoops (count)
system.membus.snoopTraffic                          0                       # Total snoop traffic (bytes)
system.membus.snoop_fanout::samples           1119214                       # Request fanout histogram
system.membus.snoop_fanout::mean                    0                       # Request fanout histogram
system.membus.snoop_fanout::stdev                   0                       # Request fanout histogram
system.membus.snoop_fanout::underflows              0      0.00%      0.00% # Request fanout histogram
system.membus.snoop_fanout::0                 1119214    100.00%    100.00% # Request fanout histogram
system.membus.snoop_fanout::1                       0      0.00%    100.00% # Request fanout histogram
system.membus.snoop_fanout::overflows               0      0.00%    100.00% # Request fanout histogram
system.membus.snoop_fanout::min_value               0                       # Request fanout histogram
system.membus.snoop_fanout::max_value               0                       # Request fanout histogram
system.membus.snoop_fanout::total             1119214                       # Request fanout histogram
system.membus.power_state.pwrStateResidencyTicks::UNDEFINED 977033475000                       # Cumulative time (in ticks) in various power states
system.tol2bus.trans_dist::ReadResp          10197990                       # Transaction distribution
system.tol2bus.trans_dist::WritebackDirty      6570496                       # Transaction distribution
system.tol2bus.trans_dist::WritebackClean         1468                       # Transaction distribution
system.tol2bus.trans_dist::CleanEvict         6294157                       # Transaction distribution
system.tol2bus.trans_dist::ReadExReq          2669155                       # Transaction distribution
system.tol2bus.trans_dist::ReadExResp         2669155                       # Transaction distribution
system.tol2bus.trans_dist::ReadCleanReq          1980                       # Transaction distribution
system.tol2bus.trans_dist::ReadSharedReq     10196010                       # Transaction distribution
system.tol2bus.pkt_count_system.cpu.icache.mem_side::system.l2.cpu_side         5428                       # Packet count per connected master and slave (bytes)
system.tol2bus.pkt_count_system.cpu.dcache.mem_side::system.l2.cpu_side     38594983                       # Packet count per connected master and slave (bytes)
system.tol2bus.pkt_count::total              38600411                       # Packet count per connected master and slave (bytes)
system.tol2bus.pkt_size_system.cpu.icache.mem_side::system.l2.cpu_side       220672                       # Cumulative packet size per connected master and slave (bytes)
system.tol2bus.pkt_size_system.cpu.dcache.mem_side::system.l2.cpu_side   1243882304                       # Cumulative packet size per connected master and slave (bytes)
system.tol2bus.pkt_size::total             1244102976                       # Cumulative packet size per connected master and slave (bytes)
system.tol2bus.snoops                         6636963                       # Total snoops (count)
system.tol2bus.snoopTraffic                 230923776                       # Total snoop traffic (bytes)
system.tol2bus.snoop_fanout::samples         19504108                       # Request fanout histogram
system.tol2bus.snoop_fanout::mean            0.000442                       # Request fanout histogram
system.tol2bus.snoop_fanout::stdev           0.021030                       # Request fanout histogram
system.tol2bus.snoop_fanout::underflows             0      0.00%      0.00% # Request fanout histogram
system.tol2bus.snoop_fanout::0               19495478     99.96%     99.96% # Request fanout histogram
system.tol2bus.snoop_fanout::1                   8630      0.04%    100.00% # Request fanout histogram
system.tol2bus.snoop_fanout::2                      0      0.00%    100.00% # Request fanout histogram
system.tol2bus.snoop_fanout::3                      0      0.00%    100.00% # Request fanout histogram
system.tol2bus.snoop_fanout::4                      0      0.00%    100.00% # Request fanout histogram
system.tol2bus.snoop_fanout::overflows              0      0.00%    100.00% # Request fanout histogram
system.tol2bus.snoop_fanout::min_value              0                       # Request fanout histogram
system.tol2bus.snoop_fanout::max_value              1                       # Request fanout histogram
system.tol2bus.snoop_fanout::total           19504108                       # Request fanout histogram
system.tol2bus.power_state.pwrStateResidencyTicks::UNDEFINED 977033475000                       # Cumulative time (in ticks) in various power states
system.voltage_domain.voltage                       1                       # Voltage in Volts
system.clk_domain.clock                          1000                       # Clock period in ticks
system.l2.demand_hits::.cpu.inst                   77                       # number of demand (read+write) hits
system.l2.demand_hits::.cpu.data              6234046                       # number of demand (read+write) hits
system.l2.demand_hits::total                  6234123                       # number of demand (read+write) hits
system.l2.overall_hits::.cpu.inst                  77                       # number of overall hits
system.l2.overall_hits::.cpu.data             6234046                       # number of overall hits
system.l2.overall_hits::total                 6234123                       # number of overall hits
system.l2.demand_misses::.cpu.inst               1903                       # number of demand (read+write) misses
system.l2.demand_misses::.cpu.data            6631119                       # number of demand (read+write) misses
system.l2.demand_misses::total                6633022                       # number of demand (read+write) misses
system.l2.overall_misses::.cpu.inst              1903                       # number of overall misses
system.l2.overall_misses::.cpu.data           6631119                       # number of overall misses
system.l2.overall_misses::total               6633022                       # number of overall misses
system.l2.demand_accesses::.cpu.inst             1980                       # number of demand (read+write) accesses
system.l2.demand_accesses::.cpu.data         12865165                       # number of demand (read+write) accesses
system.l2.demand_accesses::total             12867145                       # number of demand (read+write) accesses
system.l2.overall_accesses::.cpu.inst            1980                       # number of overall (read+write) accesses
system.l2.overall_accesses::.cpu.data        12865165                       # number of overall (read+write) accesses
system.l2.overall_accesses::total            12867145                       # number of overall (read+write) accesses
system.l2.demand_miss_rate::.cpu.inst        0.961111                       # miss rate for demand accesses
system.l2.demand_miss_rate::.cpu.data        0.515432                       # miss rate for demand accesses
system.l2.demand_miss_rate::total            0.515501                       # miss rate for demand accesses
system.l2.overall_miss_rate::.cpu.inst       0.961111                       # miss rate for overall accesses
system.l2.overall_miss_rate::.cpu.data       0.515432                       # miss rate for overall accesses
system.l2.overall_miss_rate::total           0.515501                       # miss rate for overall accesses
system.l2.blocked_cycles::no_mshrs                  0                       # number of cycles access was blocked
system.l2.blocked_cycles::no_targets                0                       # number of cycles access was blocked
system.l2.blocked::no_mshrs                         0                       # number of cycles access was blocked
system.l2.blocked::no_targets                       0                       # number of cycles access was blocked
system.l2.avg_blocked_cycles::no_mshrs            nan                       # average number of cycles each access was blocked
system.l2.avg_blocked_cycles::no_targets          nan                       # average number of cycles each access was blocked
system.l2.writebacks::.writebacks             3608184                       # number of writebacks
system.l2.writebacks::total                   3608184                       # number of writebacks
system.l2.replacements                        6633992                       # number of replacements
system.l2.WritebackDirty_hits::.writebacks      6570496                       # number of WritebackDirty hits
system.l2.WritebackDirty_hits::total          6570496                       # number of WritebackDirty hits
system.l2.WritebackDirty_accesses::.writebacks      6570496                       # number of WritebackDirty accesses(hits+misses)
system.l2.WritebackDirty_accesses::total      6570496                       # number of WritebackDirty accesses(hits+misses)
system.l2.WritebackClean_hits::.writebacks         1468                       # number of WritebackClean hits
system.l2.WritebackClean_hits::total             1468                       # number of WritebackClean hits
system.l2.WritebackClean_accesses::.writebacks         1468                       # number of WritebackClean accesses(hits+misses)
system.l2.WritebackClean_accesses::total         1468                       # number of WritebackClean accesses(hits+misses)
system.l2.ReadExReq_hits::.cpu.data            856348                       # number of ReadExReq hits
system.l2.ReadExReq_hits::total                856348                       # number of ReadExReq hits
system.l2.ReadExReq_misses::.cpu.data         1812807                       # number of ReadExReq misses
system.l2.ReadExReq_misses::total             1812807                       # number of ReadExReq misses
system.l2.ReadExReq_accesses::.cpu.data       2669155                       # number of ReadExReq accesses(hits+misses)
system.l2.ReadExReq_accesses::total           2669155                       # number of ReadExReq accesses(hits+misses)
system.l2.ReadExReq_miss_rate::.cpu.data     0.679169                       # miss rate for ReadExReq accesses
system.l2.ReadExReq_miss_rate::total         0.679169                       # miss rate for ReadExReq accesses
system.l2.ReadCleanReq_hits::.cpu.inst             77                       # number of ReadCleanReq hits
system.l2.ReadCleanReq_hits::total                 77                       # number of ReadCleanReq hits
system.l2.ReadCleanReq_misses::.cpu.inst         1903                       # number of ReadCleanReq misses
system.l2.ReadCleanReq_misses::total             1903                       # number of ReadCleanReq misses
system.l2.ReadCleanReq_accesses::.cpu.inst         1980                       # number of ReadCleanReq accesses(hits+misses)
system.l2.ReadCleanReq_accesses::total           1980                       # number of ReadCleanReq accesses(hits+misses)
system.l2.ReadCleanReq_miss_rate::.cpu.inst     0.961111                       # miss rate for ReadCleanReq accesses
system.l2.ReadCleanReq_miss_rate::total      0.961111                       # miss rate for ReadCleanReq accesses
system.l2.ReadSharedReq_hits::.cpu.data       5377698                       # number of ReadSharedReq hits
system.l2.ReadSharedReq_hits::total           5377698                       # number of ReadSharedReq hits
system.l2.ReadSharedReq_misses::.cpu.data      4818312                       # number of ReadSharedReq misses
system.l2.ReadSharedReq_misses::total         4818312                       # number of ReadSharedReq misses
system.l2.ReadSharedReq_accesses::.cpu.data     10196010                       # number of ReadSharedReq accesses(hits+misses)
system.l2.ReadSharedReq_accesses::total      10196010                       # number of ReadSharedReq accesses(hits+misses)
system.l2.ReadSharedReq_miss_rate::.cpu.data     0.472568                       # miss rate for ReadSharedReq accesses
system.l2.ReadSharedReq_miss_rate::total     0.472568                       # miss rate for ReadSharedReq accesses
system.l2.power_state.pwrStateResidencyTicks::UNDEFINED 977033475000                       # Cumulative time (in ticks) in various power states
system.l2.tags.tagsinuse                  4095.525521                       # Cycle average of tags in use
system.l2.tags.total_refs                    25732557                       # Total number of references to valid blocks.
system.l2.tags.sampled_refs                   6638088                       # Sample count of references to valid blocks.
system.l2.tags.avg_refs                      3.876501                       # Average number of references to valid blocks.
system.l2.tags.warmup_cycle                         0                       # Cycle when the warmup percentage was hit.
system.l2.tags.occ_blocks::.writebacks      10.429819                       # Average occupied blocks per requestor
system.l2.tags.occ_blocks::.cpu.inst         3.475572                       # Average occupied blocks per requestor
system.l2.tags.occ_blocks::.cpu.data      4081.620130                       # Average occupied blocks per requestor
system.l2.tags.occ_percent::.writebacks      0.002546                       # Average percentage of cache occupancy
system.l2.tags.occ_percent::.cpu.inst        0.000849                       # Average percentage of cache occupancy
system.l2.tags.occ_percent::.cpu.data        0.996489                       # Average percentage of cache occupancy
system.l2.tags.occ_percent::total            0.999884                       # Average percentage of cache occupancy
system.l2.tags.occ_task_id_blocks::1024          4096                       # Occupied blocks per task id
system.l2.tags.age_task_id_blocks_1024::0            4                       # Occupied blocks per task id
system.l2.tags.age_task_id_blocks_1024::1           31                       # Occupied blocks per task id
system.l2.tags.age_task_id_blocks_1024::2          627                       # Occupied blocks per task id
system.l2.tags.age_task_id_blocks_1024::3         3433                       # Occupied blocks per task id
system.l2.tags.age_task_id_blocks_1024::4            1                       # Occupied blocks per task id
system.l2.tags.occ_task_id_percent::1024            1                       # Percentage of cache occupancy per task id
system.l2.tags.tag_accesses                 212504200                       # Number of tag accesses
system.l2.tags.data_accesses                212504200                       # Number of data accesses
system.l2.tags.power_state.pwrStateResidencyTicks::UNDEFINED 977033475000                       # Cumulative time (in ticks) in various power states
system.l3.demand_hits::.cpu.inst                    2                       # number of demand (read+write) hits
system.l3.demand_hits::.cpu.data              5513806                       # number of demand (read+write) hits
system.l3.demand_hits::total                  5513808                       # number of demand (read+write) hits
system.l3.overall_hits::.cpu.inst                   2                       # number of overall hits
system.l3.overall_hits::.cpu.data             5513806                       # number of overall hits
system.l3.overall_hits::total                 5513808                       # number of overall hits
system.l3.demand_misses::.cpu.inst               1901                       # number of demand (read+write) misses
system.l3.demand_misses::.cpu.data            1117313                       # number of demand (read+write) misses
system.l3.demand_misses::total                1119214                       # number of demand (read+write) misses
system.l3.overall_misses::.cpu.inst              1901                       # number of overall misses
system.l3.overall_misses::.cpu.data           1117313                       # number of overall misses
system.l3.overall_misses::total               1119214                       # number of overall misses
system.l3.demand_accesses::.cpu.inst             1903                       # number of demand (read+write) accesses
system.l3.demand_accesses::.cpu.data          6631119                       # number of demand (read+write) accesses
system.l3.demand_accesses::total              6633022                       # number of demand (read+write) accesses
system.l3.overall_accesses::.cpu.inst            1903                       # number of overall (read+write) accesses
system.l3.overall_accesses::.cpu.data         6631119                       # number of overall (read+write) accesses
system.l3.overall_accesses::total             6633022                       # number of overall (read+write) accesses
system.l3.demand_miss_rate::.cpu.inst        0.998949                       # miss rate for demand accesses
system.l3.demand_miss_rate::.cpu.data        0.168495                       # miss rate for demand accesses
system.l3.demand_miss_rate::total            0.168734                       # miss rate for demand accesses
system.l3.overall_miss_rate::.cpu.inst       0.998949                       # miss rate for overall accesses
system.l3.overall_miss_rate::.cpu.data       0.168495                       # miss rate for overall accesses
system.l3.overall_miss_rate::total           0.168734                       # miss rate for overall accesses
system.l3.blocked_cycles::no_mshrs                  0                       # number of cycles access was blocked
system.l3.blocked_cycles::no_targets                0                       # number of cycles access was blocked
system.l3.blocked::no_mshrs                         0                       # number of cycles access was blocked
system.l3.blocked::no_targets                       0                       # number of cycles access was blocked
system.l3.avg_blocked_cycles::no_mshrs            nan                       # average number of cycles each access was blocked
system.l3.avg_blocked_cycles::no_targets          nan                       # average number of cycles each access was blocked
system.l3.writebacks::.writebacks              707369                       # number of writebacks
system.l3.writebacks::total                    707369                       # number of writebacks
system.l3.replacements                        1087913                       # number of replacements
system.l3.WritebackDirty_hits::.writebacks      3608184                       # number of WritebackDirty hits
system.l3.WritebackDirty_hits::total          3608184                       # number of WritebackDirty hits
system.l3.WritebackDirty_accesses::.writebacks      3608184                       # number of WritebackDirty accesses(hits+misses)
system.l3.WritebackDirty_accesses::total      3608184                       # number of WritebackDirty accesses(hits+misses)
system.l3.ReadExReq_hits::.cpu.data           1226691                       # number of ReadExReq hits
system.l3.ReadExReq_hits::total               1226691                       # number of ReadExReq hits
system.l3.ReadExReq_misses::.cpu.data          586116                       # number of ReadExReq misses
system.l3.ReadExReq_misses::total              586116                       # number of ReadExReq misses
system.l3.ReadExReq_accesses::.cpu.data       1812807                       # number of ReadExReq accesses(hits+misses)
system.l3.ReadExReq_accesses::total           1812807                       # number of ReadExReq accesses(hits+misses)
system.l3.ReadExReq_miss_rate::.cpu.data     0.323320                       # miss rate for ReadExReq accesses
system.l3.ReadExReq_miss_rate::total         0.323320                       # miss rate for ReadExReq accesses
system.l3.ReadSharedReq_hits::.cpu.inst             2                       # number of ReadSharedReq hits
system.l3.ReadSharedReq_hits::.cpu.data       4287115                       # number of ReadSharedReq hits
system.l3.ReadSharedReq_hits::total           4287117                       # number of ReadSharedReq hits
system.l3.ReadSharedReq_misses::.cpu.inst         1901                       # number of ReadSharedReq misses
system.l3.ReadSharedReq_misses::.cpu.data       531197                       # number of ReadSharedReq misses
system.l3.ReadSharedReq_misses::total          533098                       # number of ReadSharedReq misses
system.l3.ReadSharedReq_accesses::.cpu.inst         1903                       # number of ReadSharedReq accesses(hits+misses)
system.l3.ReadSharedReq_accesses::.cpu.data      4818312                       # number of ReadSharedReq accesses(hits+misses)
system.l3.ReadSharedReq_accesses::total       4820215                       # number of ReadSharedReq accesses(hits+misses)
system.l3.ReadSharedReq_miss_rate::.cpu.inst     0.998949                       # miss rate for ReadSharedReq accesses
system.l3.ReadSharedReq_miss_rate::.cpu.data     0.110245                       # miss rate for ReadSharedReq accesses
system.l3.ReadSharedReq_miss_rate::total     0.110596                       # miss rate for ReadSharedReq accesses
system.l3.power_state.pwrStateResidencyTicks::UNDEFINED 977033475000                       # Cumulative time (in ticks) in various power states
system.l3.tags.tagsinuse                 32283.058470                       # Cycle average of tags in use
system.l3.tags.total_refs                    13260263                       # Total number of references to valid blocks.
system.l3.tags.sampled_refs                   1120681                       # Sample count of references to valid blocks.
system.l3.tags.avg_refs                     11.832326                       # Average number of references to valid blocks.
system.l3.tags.warmup_cycle                         0                       # Cycle when the warmup percentage was hit.
system.l3.tags.occ_blocks::.writebacks      56.107615                       # Average occupied blocks per requestor
system.l3.tags.occ_blocks::.cpu.inst        51.000274                       # Average occupied blocks per requestor
system.l3.tags.occ_blocks::.cpu.data     32175.950581                       # Average occupied blocks per requestor
system.l3.tags.occ_percent::.writebacks      0.001712                       # Average percentage of cache occupancy
system.l3.tags.occ_percent::.cpu.inst        0.001556                       # Average percentage of cache occupancy
system.l3.tags.occ_percent::.cpu.data        0.981932                       # Average percentage of cache occupancy
system.l3.tags.occ_percent::total            0.985201                       # Average percentage of cache occupancy
system.l3.tags.occ_task_id_blocks::1024         32768                       # Occupied blocks per task id
system.l3.tags.age_task_id_blocks_1024::0            4                       # Occupied blocks per task id
system.l3.tags.age_task_id_blocks_1024::1           31                       # Occupied blocks per task id
system.l3.tags.age_task_id_blocks_1024::2          607                       # Occupied blocks per task id
system.l3.tags.age_task_id_blocks_1024::3         6153                       # Occupied blocks per task id
system.l3.tags.age_task_id_blocks_1024::4        25973                       # Occupied blocks per task id
system.l3.tags.occ_task_id_percent::1024            1                       # Percentage of cache occupancy per task id
system.l3.tags.tag_accesses                 213301897                       # Number of tag accesses
system.l3.tags.data_accesses                213301897                       # Number of data accesses
system.l3.tags.power_state.pwrStateResidencyTicks::UNDEFINED 977033475000                       # Cumulative time (in ticks) in various power states
system.cpu_voltage_domain.voltage                   1                       # Voltage in Volts
system.tol3bus.trans_dist::ReadResp           4820215                       # Transaction distribution
system.tol3bus.trans_dist::WritebackDirty      3608184                       # Transaction distribution
system.tol3bus.trans_dist::CleanEvict         3020120                       # Transaction distribution
system.tol3bus.trans_dist::ReadExReq          1812807                       # Transaction distribution
system.tol3bus.trans_dist::ReadExResp         1812807                       # Transaction distribution
system.tol3bus.trans_dist::ReadSharedReq      4820215                       # Transaction distribution
system.tol3bus.pkt_count_system.l2.mem_side::system.l3.cpu_side     19894348                       # Packet count per connected master and slave (bytes)
system.tol3bus.pkt_size_system.l2.mem_side::system.l3.cpu_side    655437184                       # Cumulative packet size per connected master and slave (bytes)
system.tol3bus.snoops                         1087913                       # Total snoops (count)
system.tol3bus.snoopTraffic                  45271616                       # Total snoop traffic (bytes)
system.tol3bus.snoop_fanout::samples          7720935                       # Request fanout histogram
system.tol3bus.snoop_fanout::mean            0.000385                       # Request fanout histogram
system.tol3bus.snoop_fanout::stdev           0.019612                       # Request fanout histogram
system.tol3bus.snoop_fanout::underflows             0      0.00%      0.00% # Request fanout histogram
system.tol3bus.snoop_fanout::0                7717964     99.96%     99.96% # Request fanout histogram
system.tol3bus.snoop_fanout::1                   2971      0.04%    100.00% # Request fanout histogram
system.tol3bus.snoop_fanout::overflows              0      0.00%    100.00% # Request fanout histogram
system.tol3bus.snoop_fanout::min_value              0                       # Request fanout histogram
system.tol3bus.snoop_fanout::max_value              1                       # Request fanout histogram
system.tol3bus.snoop_fanout::total            7720935                       # Request fanout histogram
system.tol3bus.power_state.pwrStateResidencyTicks::UNDEFINED 977033475000                       # Cumulative time (in ticks) in various power states
system.mem_ctrls.bytes_read::.cpu.inst         121664                       # Number of bytes read from this memory
system.mem_ctrls.bytes_read::.cpu.data       71508032                       # Number of bytes read from this memory
system.mem_ctrls.bytes_read::total           71629696                       # Number of bytes read from this memory
system.mem_ctrls.bytes_inst_read::.cpu.inst       121664                       # Number of instructions bytes read from this memory
system.mem_ctrls.bytes_inst_read::total        121664                       # Number of instructions bytes read from this memory
system.mem_ctrls.bytes_written::.writebacks     45271616                       # Number of bytes written to this memory
system.mem_ctrls.bytes_written::total        45271616                       # Number of bytes written to this memory
system.mem_ctrls.num_reads::.cpu.inst            1901                       # Number of read requests responded to by this memory
system.mem_ctrls.num_reads::.cpu.data         1117313                       # Number of read requests responded to by this memory
system.mem_ctrls.num_reads::total             1119214                       # Number of read requests responded to by this memory
system.mem_ctrls.num_writes::.writebacks       707369                       # Number of write requests responded to by this memory
system.mem_ctrls.num_writes::total             707369                       # Number of write requests responded to by this memory
system.mem_ctrls.bw_read::.cpu.inst            124524                       # Total read bandwidth from this memory (bytes/s)
system.mem_ctrls.bw_read::.cpu.data          73188927                       # Total read bandwidth from this memory (bytes/s)
system.mem_ctrls.bw_read::total              73313451                       # Total read bandwidth from this memory (bytes/s)
system.mem_ctrls.bw_inst_read::.cpu.inst       124524                       # Instruction read bandwidth from this memory (bytes/s)
system.mem_ctrls.bw_inst_read::total           124524                       # Instruction read bandwidth from this memory (bytes/s)
system.mem_ctrls.bw_write::.writebacks       46335788                       # Write bandwidth from this memory (bytes/s)
system.mem_ctrls.bw_write::total             46335788                       # Write bandwidth from this memory (bytes/s)
system.mem_ctrls.bw_total::.writebacks       46335788                       # Total bandwidth to/from this memory (bytes/s)
system.mem_ctrls.bw_total::.cpu.inst           124524                       # Total bandwidth to/from this memory (bytes/s)
system.mem_ctrls.bw_total::.cpu.data         73188927                       # Total bandwidth to/from this memory (bytes/s)
system.mem_ctrls.bw_total::total            119649239                       # Total bandwidth to/from this memory (bytes/s)
system.mem_ctrls.priorityMinLatency      0.000000000000                       # per QoS priority minimum request to response latency (s)
system.mem_ctrls.priorityMaxLatency      0.000000000000                       # per QoS priority maximum request to response latency (s)
system.mem_ctrls.numReadWriteTurnArounds            0                       # Number of turnarounds from READ to WRITE
system.mem_ctrls.numWriteReadTurnArounds            0                       # Number of turnarounds from WRITE to READ
system.mem_ctrls.numStayReadState                   0                       # Number of times bus staying in READ state
system.mem_ctrls.numStayWriteState                  0                       # Number of times bus staying in WRITE state
system.mem_ctrls.readReqs                           0                       # Number of read requests accepted
system.mem_ctrls.writeReqs                          0                       # Number of write requests accepted
system.mem_ctrls.readBursts                         0                       # Number of DRAM read bursts, including those serviced by the write queue
system.mem_ctrls.writeBursts                        0                       # Number of DRAM write bursts, including those merged in the write queue
system.mem_ctrls.servicedByWrQ                      0                       # Number of DRAM read bursts serviced by the write queue
system.mem_ctrls.mergedWrBursts                     0                       # Number of DRAM write bursts merged with an existing one
system.mem_ctrls.neitherReadNorWriteReqs            0                       # Number of requests that are neither read nor write
system.mem_ctrls.perBankRdBursts::0                 0                       # Per bank write bursts
system.mem_ctrls.perBankRdBursts::1                 0                       # Per bank write bursts
system.mem_ctrls.perBankRdBursts::2                 0                       # Per bank write bursts
system.mem_ctrls.perBankRdBursts::3                 0                       # Per bank write bursts
system.mem_ctrls.perBankRdBursts::4                 0                       # Per bank write bursts
system.mem_ctrls.perBankRdBursts::5                 0                       # Per bank write bursts
system.mem_ctrls.perBankRdBursts::6                 0                       # Per bank write bursts
system.mem_ctrls.perBankRdBursts::7                 0                       # Per bank write bursts
system.mem_ctrls.perBankRdBursts::8                 0                       # Per bank write bursts
system.mem_ctrls.perBankRdBursts::9                 0                       # Per bank write bursts
system.mem_ctrls.perBankRdBursts::10                0                       # Per bank write bursts
system.mem_ctrls.perBankRdBursts::11                0                       # Per bank write bursts
system.mem_ctrls.perBankRdBursts::12                0                       # Per bank write bursts
system.mem_ctrls.perBankRdBursts::13                0                       # Per bank write bursts
system.mem_ctrls.perBankRdBursts::14                0                       # Per bank write bursts
system.mem_ctrls.perBankRdBursts::15                0                       # Per bank write bursts
system.mem_ctrls.perBankWrBursts::0                 0                       # Per bank write bursts
system.mem_ctrls.perBankWrBursts::1                 0                       # Per bank write bursts
system.mem_ctrls.perBankWrBursts::2                 0                       # Per bank write bursts
system.mem_ctrls.perBankWrBursts::3                 0                       # Per bank write bursts
system.mem_ctrls.perBankWrBursts::4                 0                       # Per bank write bursts
system.mem_ctrls.perBankWrBursts::5                 0                       # Per bank write bursts
system.mem_ctrls.perBankWrBursts::6                 0                       # Per bank write bursts
system.mem_ctrls.perBankWrBursts::7                 0                       # Per bank write bursts
system.mem_ctrls.perBankWrBursts::8                 0                       # Per bank write bursts
system.mem_ctrls.perBankWrBursts::9                 0                       # Per bank write bursts
system.mem_ctrls.perBankWrBursts::10                0                       # Per bank write bursts
system.mem_ctrls.perBankWrBursts::11                0                       # Per bank write bursts
system.mem_ctrls.perBankWrBursts::12                0                       # Per bank write bursts
system.mem_ctrls.perBankWrBursts::13                0                       # Per bank write bursts
system.mem_ctrls.perBankWrBursts::14                0                       # Per bank write bursts
system.mem_ctrls.perBankWrBursts::15                0                       # Per bank write bursts
system.mem_ctrls.avgRdQLen                       0.00                       # Average read queue length when enqueuing
system.mem_ctrls.avgWrQLen                       0.00                       # Average write queue length when enqueuing
system.mem_ctrls.totQLat                            0                       # Total ticks spent queuing
system.mem_ctrls.totBusLat                          0                       # Total ticks spent in databus transfers
system.mem_ctrls.totMemAccLat                       0                       # Total ticks spent from burst creation until serviced by the DRAM
system.mem_ctrls.avgQLat                          nan                       # Average queueing delay per DRAM burst
system.mem_ctrls.avgBusLat                        nan                       # Average bus latency per DRAM burst
system.mem_ctrls.avgMemAccLat                     nan                       # Average memory access latency per DRAM burst
system.mem_ctrls.numRdRetry                         0                       # Number of times read queue was full causing retry
system.mem_ctrls.numWrRetry                         0                       # Number of times write queue was full causing retry
system.mem_ctrls.readRowHits                        0                       # Number of row buffer hits during reads
system.mem_ctrls.writeRowHits                       0                       # Number of row buffer hits during writes
system.mem_ctrls.readRowHitRate                   nan                       # Row buffer hit rate for reads
system.mem_ctrls.writeRowHitRate                  nan                       # Row buffer hit rate for writes
system.mem_ctrls.readPktSize::0                     0                       # Read request sizes (log2)
system.mem_ctrls.readPktSize::1                     0                       # Read request sizes (log2)
system.mem_ctrls.readPktSize::2                     0                       # Read request sizes (log2)
system.mem_ctrls.readPktSize::3                     0                       # Read request sizes (log2)
system.mem_ctrls.readPktSize::4                     0                       # Read request sizes (log2)
system.mem_ctrls.readPktSize::5                     0                       # Read request sizes (log2)
system.mem_ctrls.readPktSize::6                     0                       # Read request sizes (log2)
system.mem_ctrls.writePktSize::0                    0                       # Write request sizes (log2)
system.mem_ctrls.writePktSize::1                    0                       # Write request sizes (log2)
system.mem_ctrls.writePktSize::2                    0                       # Write request sizes (log2)
system.mem_ctrls.writePktSize::3                    0                       # Write request sizes (log2)
system.mem_ctrls.writePktSize::4                    0                       # Write request sizes (log2)
system.mem_ctrls.writePktSize::5                    0                       # Write request sizes (log2)
system.mem_ctrls.writePktSize::6                    0                       # Write request sizes (log2)
system.mem_ctrls.rdQLenPdf::0                       0                       # What read queue length does an incoming req see
system.mem_ctrls.rdQLenPdf::1                       0                       # What read queue length does an incoming req see
system.mem_ctrls.rdQLenPdf::2                       0                       # What read queue length does an incoming req see
system.mem_ctrls.rdQLenPdf::3                       0                       # What read queue length does an incoming req see
system.mem_ctrls.rdQLenPdf::4                       0                       # What read queue length does an incoming req see
system.mem_ctrls.rdQLenPdf::5                       0                       # What read queue length does an incoming req see
system.mem_ctrls.rdQLenPdf::6                       0                       # What read queue length does an incoming req see
system.mem_ctrls.rdQLenPdf::7                       0                       # What read queue length does an incoming req see
system.mem_ctrls.rdQLenPdf::8                       0                       # What read queue length does an incoming req see
system.mem_ctrls.rdQLenPdf::9                       0                       # What read queue length does an incoming req see
system.mem_ctrls.rdQLenPdf::10                      0                       # What read queue length does an incoming req see
system.mem_ctrls.rdQLenPdf::11                      0                       # What read queue length does an incoming req see
system.mem_ctrls.rdQLenPdf::12                      0                       # What read queue length does an incoming req see
system.mem_ctrls.rdQLenPdf::13                      0                       # What read queue length does an incoming req see
system.mem_ctrls.rdQLenPdf::14                      0                       # What read queue length does an incoming req see
system.mem_ctrls.rdQLenPdf::15                      0                       # What read queue length does an incoming req see
system.mem_ctrls.rdQLenPdf::16                      0                       # What read queue length does an incoming req see
system.mem_ctrls.rdQLenPdf::17                      0                       # What read queue length does an incoming req see
system.mem_ctrls.rdQLenPdf::18                      0                       # What read queue length does an incoming req see
system.mem_ctrls.rdQLenPdf::19                      0                       # What read queue length does an incoming req see
system.mem_ctrls.rdQLenPdf::20                      0                       # What read queue length does an incoming req see
system.mem_ctrls.rdQLenPdf::21                      0                       # What read queue length does an incoming req see
system.mem_ctrls.rdQLenPdf::22                      0                       # What read queue length does an incoming req see
system.mem_ctrls.rdQLenPdf::23                      0                       # What read queue length does an incoming req see
system.mem_ctrls.rdQLenPdf::24                      0                       # What read queue length does an incoming req see
system.mem_ctrls.rdQLenPdf::25                      0                       # What read queue length does an incoming req see
system.mem_ctrls.rdQLenPdf::26                      0                       # What read queue length does an incoming req see
system.mem_ctrls.rdQLenPdf::27                      0                       # What read queue length does an incoming req see
system.mem_ctrls.rdQLenPdf::28                      0                       # What read queue length does an incoming req see
system.mem_ctrls.rdQLenPdf::29                      0                       # What read queue length does an incoming req see
system.mem_ctrls.rdQLenPdf::30                      0                       # What read queue length does an incoming req see
system.mem_ctrls.rdQLenPdf::31                      0                       # What read queue length does an incoming req see
system.mem_ctrls.wrQLenPdf::0                       0                       # What write queue length does an incoming req see
system.mem_ctrls.wrQLenPdf::1                       0                       # What write queue length does an incoming req see
system.mem_ctrls.wrQLenPdf::2                       0                       # What write queue length does an incoming req see
system.mem_ctrls.wrQLenPdf::3                       0                       # What write queue length does an incoming req see
system.mem_ctrls.wrQLenPdf::4                       0                       # What write queue length does an incoming req see
system.mem_ctrls.wrQLenPdf::5                       0                       # What write queue length does an incoming req see
system.mem_ctrls.wrQLenPdf::6                       0                       # What write queue length does an incoming req see
system.mem_ctrls.wrQLenPdf::7                       0                       # What write queue length does an incoming req see
system.mem_ctrls.wrQLenPdf::8                       0                       # What write queue length does an incoming req see
system.mem_ctrls.wrQLenPdf::9                       0                       # What write queue length does an incoming req see
system.mem_ctrls.wrQLenPdf::10                      0                       # What write queue length does an incoming req see
system.mem_ctrls.wrQLenPdf::11                      0                       # What write queue length does an incoming req see
system.mem_ctrls.wrQLenPdf::12                      0                       # What write queue length does an incoming req see
system.mem_ctrls.wrQLenPdf::13                      0                       # What write queue length does an incoming req see
system.mem_ctrls.wrQLenPdf::14                      0                       # What write queue length does an incoming req see
system.mem_ctrls.wrQLenPdf::15                      0                       # What write queue length does an incoming req see
system.mem_ctrls.wrQLenPdf::16                      0                       # What write queue length does an incoming req see
system.mem_ctrls.wrQLenPdf::17                      0                       # What write queue length does an incoming req see
system.mem_ctrls.wrQLenPdf::18                      0                       # What write queue length does an incoming req see
system.mem_ctrls.wrQLenPdf::19                      0                       # What write queue length does an incoming req see
system.mem_ctrls.wrQLenPdf::20                      0                       # What write queue length does an incoming req see
system.mem_ctrls.wrQLenPdf::21                      0                       # What write queue length does an incoming req see
system.mem_ctrls.wrQLenPdf::22                      0                       # What write queue length does an incoming req see
system.mem_ctrls.wrQLenPdf::23                      0                       # What write queue length does an incoming req see
system.mem_ctrls.wrQLenPdf::24                      0                       # What write queue length does an incoming req see
system.mem_ctrls.wrQLenPdf::25                      0                       # What write queue length does an incoming req see
system.mem_ctrls.wrQLenPdf::26                      0                       # What write queue length does an incoming req see
system.mem_ctrls.wrQLenPdf::27                      0                       # What write queue length does an incoming req see
system.mem_ctrls.wrQLenPdf::28                      0                       # What write queue length does an incoming req see
system.mem_ctrls.wrQLenPdf::29                      0                       # What write queue length does an incoming req see
system.mem_ctrls.wrQLenPdf::30                      0                       # What write queue length does an incoming req see
system.mem_ctrls.wrQLenPdf::31                      0                       # What write queue length does an incoming req see
system.mem_ctrls.wrQLenPdf::32                      0                       # What write queue length does an incoming req see
system.mem_ctrls.wrQLenPdf::33                      0                       # What write queue length does an incoming req see
system.mem_ctrls.wrQLenPdf::34                      0                       # What write queue length does an incoming req see
system.mem_ctrls.wrQLenPdf::35                      0                       # What write queue length does an incoming req see
system.mem_ctrls.wrQLenPdf::36                      0                       # What write queue length does an incoming req see
system.mem_ctrls.wrQLenPdf::37                      0                       # What write queue length does an incoming req see
system.mem_ctrls.wrQLenPdf::38                      0                       # What write queue length does an incoming req see
system.mem_ctrls.wrQLenPdf::39                      0                       # What write queue length does an incoming req see
system.mem_ctrls.wrQLenPdf::40                      0                       # What write queue length does an incoming req see
system.mem_ctrls.wrQLenPdf::41                      0                       # What write queue length does an incoming req see
system.mem_ctrls.wrQLenPdf::42                      0                       # What write queue length does an incoming req see
system.mem_ctrls.wrQLenPdf::43                      0                       # What write queue length does an incoming req see
system.mem_ctrls.wrQLenPdf::44                      0                       # What write queue length does an incoming req see
system.mem_ctrls.wrQLenPdf::45                      0                       # What write queue length does an incoming req see
system.mem_ctrls.wrQLenPdf::46                      0                       # What write queue length does an incoming req see
system.mem_ctrls.wrQLenPdf::47                      0                       # What write queue length does an incoming req see
system.mem_ctrls.wrQLenPdf::48                      0                       # What write queue length does an incoming req see
system.mem_ctrls.wrQLenPdf::49                      0                       # What write queue length does an incoming req see
system.mem_ctrls.wrQLenPdf::50                      0                       # What write queue length does an incoming req see
system.mem_ctrls.wrQLenPdf::51                      0                       # What write queue length does an incoming req see
system.mem_ctrls.wrQLenPdf::52                      0                       # What write queue length does an incoming req see
system.mem_ctrls.wrQLenPdf::53                      0                       # What write queue length does an incoming req see
system.mem_ctrls.wrQLenPdf::54                      0                       # What write queue length does an incoming req see
system.mem_ctrls.wrQLenPdf::55                      0                       # What write queue length does an incoming req see
system.mem_ctrls.wrQLenPdf::56                      0                       # What write queue length does an incoming req see
system.mem_ctrls.wrQLenPdf::57                      0                       # What write queue length does an incoming req see
system.mem_ctrls.wrQLenPdf::58                      0                       # What write queue length does an incoming req see
system.mem_ctrls.wrQLenPdf::59                      0                       # What write queue length does an incoming req see
system.mem_ctrls.wrQLenPdf::60                      0                       # What write queue length does an incoming req see
system.mem_ctrls.wrQLenPdf::61                      0                       # What write queue length does an incoming req see
system.mem_ctrls.wrQLenPdf::62                      0                       # What write queue length does an incoming req see
system.mem_ctrls.wrQLenPdf::63                      0                       # What write queue length does an incoming req see
system.mem_ctrls.bytesReadDRAM                      0                       # Total number of bytes read from DRAM
system.mem_ctrls.bytesReadWrQ                       0                       # Total number of bytes read from write queue
system.mem_ctrls.bytesWritten                       0                       # Total number of bytes written to DRAM
system.mem_ctrls.bytesReadSys                       0                       # Total read bytes from the system interface side
system.mem_ctrls.bytesWrittenSys                    0                       # Total written bytes from the system interface side
system.mem_ctrls.avgRdBW                         0.00                       # Average DRAM read bandwidth in MiByte/s
system.mem_ctrls.avgWrBW                         0.00                       # Average achieved write bandwidth in MiByte/s
system.mem_ctrls.avgRdBWSys                      0.00                       # Average system read bandwidth in MiByte/s
system.mem_ctrls.avgWrBWSys                      0.00                       # Average system write bandwidth in MiByte/s
system.mem_ctrls.peakBW                      12800.00                       # Theoretical peak bandwidth in MiByte/s
system.mem_ctrls.busUtil                         0.00                       # Data bus utilization in percentage
system.mem_ctrls.busUtilRead                     0.00                       # Data bus utilization in percentage for reads
system.mem_ctrls.busUtilWrite                    0.00                       # Data bus utilization in percentage for writes
system.mem_ctrls.totGap                             0                       # Total gap between requests
system.mem_ctrls.avgGap                           nan                       # Average gap between requests
system.mem_ctrls.pageHitRate                      nan                       # Row buffer hit rate, read and write combined
system.mem_ctrls.rank1.actEnergy                    0                       # Energy for activate commands per rank (pJ)
system.mem_ctrls.rank1.preEnergy                    0                       # Energy for precharge commands per rank (pJ)
system.mem_ctrls.rank1.readEnergy                   0                       # Energy for read commands per rank (pJ)
system.mem_ctrls.rank1.writeEnergy                  0                       # Energy for write commands per rank (pJ)
system.mem_ctrls.rank1.refreshEnergy                0                       # Energy for refresh commands per rank (pJ)
system.mem_ctrls.rank1.actBackEnergy                0                       # Energy for active background per rank (pJ)
system.mem_ctrls.rank1.preBackEnergy     375180854400                       # Energy for precharge background per rank (pJ)
system.mem_ctrls.rank1.actPowerDownEnergy            0                       # Energy for active power-down per rank (pJ)
system.mem_ctrls.rank1.prePowerDownEnergy            0                       # Energy for precharge power-down per rank (pJ)
system.mem_ctrls.rank1.selfRefreshEnergy            0                       # Energy for self refresh per rank (pJ)
system.mem_ctrls.rank1.totalEnergy       375180854400                       # Total energy per rank (pJ)
system.mem_ctrls.rank1.averagePower               384                       # Core power per rank (mW)
system.mem_ctrls.rank1.totalIdleTime                0                       # Total Idle time Per DRAM Rank
system.mem_ctrls.rank1.memoryStateTime::IDLE 977033475000                       # Time in different power states
system.mem_ctrls.rank1.memoryStateTime::REF            0                       # Time in different power states
system.mem_ctrls.rank1.memoryStateTime::SREF            0                       # Time in different power states
system.mem_ctrls.rank1.memoryStateTime::PRE_PDN            0                       # Time in different power states
system.mem_ctrls.rank1.memoryStateTime::ACT            0                       # Time in different power states
system.mem_ctrls.rank1.memoryStateTime::ACT_PDN            0                       # Time in different power states
system.mem_ctrls.rank0.actEnergy                    0                       # Energy for activate commands per rank (pJ)
system.mem_ctrls.rank0.preEnergy                    0                       # Energy for precharge commands per rank (pJ)
system.mem_ctrls.rank0.readEnergy                   0                       # Energy for read commands per rank (pJ)
system.mem_ctrls.rank0.writeEnergy                  0                       # Energy for write commands per rank (pJ)
system.mem_ctrls.rank0.refreshEnergy                0                       # Energy for refresh commands per rank (pJ)
system.mem_ctrls.rank0.actBackEnergy                0                       # Energy for active background per rank (pJ)
system.mem_ctrls.rank0.preBackEnergy     375180854400                       # Energy for precharge background per rank (pJ)
system.mem_ctrls.rank0.actPowerDownEnergy            0                       # Energy for active power-down per rank (pJ)
system.mem_ctrls.rank0.prePowerDownEnergy            0                       # Energy for precharge power-down per rank (pJ)
system.mem_ctrls.rank0.selfRefreshEnergy            0                       # Energy for self refresh per rank (pJ)
system.mem_ctrls.rank0.totalEnergy       375180854400                       # Total energy per rank (pJ)
system.mem_ctrls.rank0.averagePower               384                       # Core power per rank (mW)
system.mem_ctrls.rank0.totalIdleTime                0                       # Total Idle time Per DRAM Rank
system.mem_ctrls.rank0.memoryStateTime::IDLE 977033475000                       # Time in different power states
system.mem_ctrls.rank0.memoryStateTime::REF            0                       # Time in different power states
system.mem_ctrls.rank0.memoryStateTime::SREF            0                       # Time in different power states
system.mem_ctrls.rank0.memoryStateTime::PRE_PDN            0                       # Time in different power states
system.mem_ctrls.rank0.memoryStateTime::ACT            0                       # Time in different power states
system.mem_ctrls.rank0.memoryStateTime::ACT_PDN            0                       # Time in different power states
system.mem_ctrls.power_state.pwrStateResidencyTicks::UNDEFINED 977033475000                       # Cumulative time (in ticks) in various power states
system.cpu_clk_domain.clock                       500                       # Clock period in ticks
system.cpu.icache.demand_hits::.cpu.inst   1291629491                       # number of demand (read+write) hits
system.cpu.icache.demand_hits::total       1291629491                       # number of demand (read+write) hits
system.cpu.icache.overall_hits::.cpu.inst   1291629491                       # number of overall hits
system.cpu.icache.overall_hits::total      1291629491                       # number of overall hits
system.cpu.icache.demand_misses::.cpu.inst         1980                       # number of demand (read+write) misses
system.cpu.icache.demand_misses::total           1980                       # number of demand (read+write) misses
system.cpu.icache.overall_misses::.cpu.inst         1980                       # number of overall misses
system.cpu.icache.overall_misses::total          1980                       # number of overall misses
system.cpu.icache.demand_accesses::.cpu.inst   1291631471                       # number of demand (read+write) accesses
system.cpu.icache.demand_accesses::total   1291631471                       # number of demand (read+write) accesses
system.cpu.icache.overall_accesses::.cpu.inst   1291631471                       # number of overall (read+write) accesses
system.cpu.icache.overall_accesses::total   1291631471                       # number of overall (read+write) accesses
system.cpu.icache.demand_miss_rate::.cpu.inst     0.000002                       # miss rate for demand accesses
system.cpu.icache.demand_miss_rate::total     0.000002                       # miss rate for demand accesses
system.cpu.icache.overall_miss_rate::.cpu.inst     0.000002                       # miss rate for overall accesses
system.cpu.icache.overall_miss_rate::total     0.000002                       # miss rate for overall accesses
system.cpu.icache.blocked_cycles::no_mshrs            0                       # number of cycles access was blocked
system.cpu.icache.blocked_cycles::no_targets            0                       # number of cycles access was blocked
system.cpu.icache.blocked::no_mshrs                 0                       # number of cycles access was blocked
system.cpu.icache.blocked::no_targets               0                       # number of cycles access was blocked
system.cpu.icache.avg_blocked_cycles::no_mshrs          nan                       # average number of cycles each access was blocked
system.cpu.icache.avg_blocked_cycles::no_targets          nan                       # average number of cycles each access was blocked
system.cpu.icache.writebacks::.writebacks         1468                       # number of writebacks
system.cpu.icache.writebacks::total              1468                       # number of writebacks
system.cpu.icache.replacements                   1468                       # number of replacements
system.cpu.icache.ReadReq_hits::.cpu.inst   1291629491                       # number of ReadReq hits
system.cpu.icache.ReadReq_hits::total      1291629491                       # number of ReadReq hits
system.cpu.icache.ReadReq_misses::.cpu.inst         1980                       # number of ReadReq misses
system.cpu.icache.ReadReq_misses::total          1980                       # number of ReadReq misses
system.cpu.icache.ReadReq_accesses::.cpu.inst   1291631471                       # number of ReadReq accesses(hits+misses)
system.cpu.icache.ReadReq_accesses::total   1291631471                       # number of ReadReq accesses(hits+misses)
system.cpu.icache.ReadReq_miss_rate::.cpu.inst     0.000002                       # miss rate for ReadReq accesses
system.cpu.icache.ReadReq_miss_rate::total     0.000002                       # miss rate for ReadReq accesses
system.cpu.icache.power_state.pwrStateResidencyTicks::UNDEFINED 977033475000                       # Cumulative time (in ticks) in various power states
system.cpu.icache.tags.tagsinuse           511.586291                       # Cycle average of tags in use
system.cpu.icache.tags.total_refs          1291631471                       # Total number of references to valid blocks.
system.cpu.icache.tags.sampled_refs              1980                       # Sample count of references to valid blocks.
system.cpu.icache.tags.avg_refs          652339.126768                       # Average number of references to valid blocks.
system.cpu.icache.tags.warmup_cycle                 0                       # Cycle when the warmup percentage was hit.
system.cpu.icache.tags.occ_blocks::.cpu.inst   511.586291                       # Average occupied blocks per requestor
system.cpu.icache.tags.occ_percent::.cpu.inst     0.999192                       # Average percentage of cache occupancy
system.cpu.icache.tags.occ_percent::total     0.999192                       # Average percentage of cache occupancy
system.cpu.icache.tags.occ_task_id_blocks::1024          512                       # Occupied blocks per task id
system.cpu.icache.tags.age_task_id_blocks_1024::4          512                       # Occupied blocks per task id
system.cpu.icache.tags.occ_task_id_percent::1024            1                       # Percentage of cache occupancy per task id
system.cpu.icache.tags.tag_accesses        5166527864                       # Number of tag accesses
system.cpu.icache.tags.data_accesses       5166527864                       # Number of data accesses
system.cpu.icache.tags.power_state.pwrStateResidencyTicks::UNDEFINED 977033475000                       # Cumulative time (in ticks) in various power states
system.cpu.dtb.walker.power_state.pwrStateResidencyTicks::UNDEFINED 977033475000                       # Cumulative time (in ticks) in various power states
system.cpu.interrupts.clk_domain.clock           8000                       # Clock period in ticks
system.cpu.itb_walker_cache.blocked_cycles::no_mshrs            0                       # number of cycles access was blocked
system.cpu.itb_walker_cache.blocked_cycles::no_targets            0                       # number of cycles access was blocked
system.cpu.itb_walker_cache.blocked::no_mshrs            0                       # number of cycles access was blocked
system.cpu.itb_walker_cache.blocked::no_targets            0                       # number of cycles access was blocked
system.cpu.itb_walker_cache.avg_blocked_cycles::no_mshrs          nan                       # average number of cycles each access was blocked
system.cpu.itb_walker_cache.avg_blocked_cycles::no_targets          nan                       # average number of cycles each access was blocked
system.cpu.itb_walker_cache.replacements            0                       # number of replacements
system.cpu.itb_walker_cache.power_state.pwrStateResidencyTicks::UNDEFINED 977033475000                       # Cumulative time (in ticks) in various power states
system.cpu.itb_walker_cache.tags.tagsinuse            0                       # Cycle average of tags in use
system.cpu.itb_walker_cache.tags.total_refs            0                       # Total number of references to valid blocks.
system.cpu.itb_walker_cache.tags.sampled_refs            0                       # Sample count of references to valid blocks.
system.cpu.itb_walker_cache.tags.avg_refs          nan                       # Average number of references to valid blocks.
system.cpu.itb_walker_cache.tags.warmup_cycle            0                       # Cycle when the warmup percentage was hit.
system.cpu.itb_walker_cache.tags.tag_accesses            0                       # Number of tag accesses
system.cpu.itb_walker_cache.tags.data_accesses            0                       # Number of data accesses
system.cpu.itb_walker_cache.tags.power_state.pwrStateResidencyTicks::UNDEFINED 977033475000                       # Cumulative time (in ticks) in various power states
system.cpu.itb.walker.power_state.pwrStateResidencyTicks::UNDEFINED 977033475000                       # Cumulative time (in ticks) in various power states
system.cpu.dtb_walker_cache.blocked_cycles::no_mshrs            0                       # number of cycles access was blocked
system.cpu.dtb_walker_cache.blocked_cycles::no_targets            0                       # number of cycles access was blocked
system.cpu.dtb_walker_cache.blocked::no_mshrs            0                       # number of cycles access was blocked
system.cpu.dtb_walker_cache.blocked::no_targets            0                       # number of cycles access was blocked
system.cpu.dtb_walker_cache.avg_blocked_cycles::no_mshrs          nan                       # average number of cycles each access was blocked
system.cpu.dtb_walker_cache.avg_blocked_cycles::no_targets          nan                       # average number of cycles each access was blocked
system.cpu.dtb_walker_cache.replacements            0                       # number of replacements
system.cpu.dtb_walker_cache.power_state.pwrStateResidencyTicks::UNDEFINED 977033475000                       # Cumulative time (in ticks) in various power states
system.cpu.dtb_walker_cache.tags.tagsinuse            0                       # Cycle average of tags in use
system.cpu.dtb_walker_cache.tags.total_refs            0                       # Total number of references to valid blocks.
system.cpu.dtb_walker_cache.tags.sampled_refs            0                       # Sample count of references to valid blocks.
system.cpu.dtb_walker_cache.tags.avg_refs          nan                       # Average number of references to valid blocks.
system.cpu.dtb_walker_cache.tags.warmup_cycle            0                       # Cycle when the warmup percentage was hit.
system.cpu.dtb_walker_cache.tags.tag_accesses            0                       # Number of tag accesses
system.cpu.dtb_walker_cache.tags.data_accesses            0                       # Number of data accesses
system.cpu.dtb_walker_cache.tags.power_state.pwrStateResidencyTicks::UNDEFINED 977033475000                       # Cumulative time (in ticks) in various power states
system.cpu.dcache.demand_hits::.cpu.data    395200841                       # number of demand (read+write) hits
system.cpu.dcache.demand_hits::total        395200841                       # number of demand (read+write) hits
system.cpu.dcache.overall_hits::.cpu.data    395200841                       # number of overall hits
system.cpu.dcache.overall_hits::total       395200841                       # number of overall hits
system.cpu.dcache.demand_misses::.cpu.data     12865165                       # number of demand (read+write) misses
system.cpu.dcache.demand_misses::total       12865165                       # number of demand (read+write) misses
system.cpu.dcache.overall_misses::.cpu.data     12865165                       # number of overall misses
system.cpu.dcache.overall_misses::total      12865165                       # number of overall misses
system.cpu.dcache.demand_accesses::.cpu.data    408066006                       # number of demand (read+write) accesses
system.cpu.dcache.demand_accesses::total    408066006                       # number of demand (read+write) accesses
system.cpu.dcache.overall_accesses::.cpu.data    408066006                       # number of overall (read+write) accesses
system.cpu.dcache.overall_accesses::total    408066006                       # number of overall (read+write) accesses
system.cpu.dcache.demand_miss_rate::.cpu.data     0.031527                       # miss rate for demand accesses
system.cpu.dcache.demand_miss_rate::total     0.031527                       # miss rate for demand accesses
system.cpu.dcache.overall_miss_rate::.cpu.data     0.031527                       # miss rate for overall accesses
system.cpu.dcache.overall_miss_rate::total     0.031527                       # miss rate for overall accesses
system.cpu.dcache.blocked_cycles::no_mshrs            0                       # number of cycles access was blocked
system.cpu.dcache.blocked_cycles::no_targets            0                       # number of cycles access was blocked
system.cpu.dcache.blocked::no_mshrs                 0                       # number of cycles access was blocked
system.cpu.dcache.blocked::no_targets               0                       # number of cycles access was blocked
system.cpu.dcache.avg_blocked_cycles::no_mshrs          nan                       # average number of cycles each access was blocked
system.cpu.dcache.avg_blocked_cycles::no_targets          nan                       # average number of cycles each access was blocked
system.cpu.dcache.writebacks::.writebacks      6570496                       # number of writebacks
system.cpu.dcache.writebacks::total           6570496                       # number of writebacks
system.cpu.dcache.replacements               12864653                       # number of replacements
system.cpu.dcache.ReadReq_hits::.cpu.data    294456454                       # number of ReadReq hits
system.cpu.dcache.ReadReq_hits::total       294456454                       # number of ReadReq hits
system.cpu.dcache.ReadReq_misses::.cpu.data     10196010                       # number of ReadReq misses
system.cpu.dcache.ReadReq_misses::total      10196010                       # number of ReadReq misses
system.cpu.dcache.ReadReq_accesses::.cpu.data    304652464                       # number of ReadReq accesses(hits+misses)
system.cpu.dcache.ReadReq_accesses::total    304652464                       # number of ReadReq accesses(hits+misses)
system.cpu.dcache.ReadReq_miss_rate::.cpu.data     0.033468                       # miss rate for ReadReq accesses
system.cpu.dcache.ReadReq_miss_rate::total     0.033468                       # miss rate for ReadReq accesses
system.cpu.dcache.WriteReq_hits::.cpu.data    100744387                       # number of WriteReq hits
system.cpu.dcache.WriteReq_hits::total      100744387                       # number of WriteReq hits
system.cpu.dcache.WriteReq_misses::.cpu.data      2669155                       # number of WriteReq misses
system.cpu.dcache.WriteReq_misses::total      2669155                       # number of WriteReq misses
system.cpu.dcache.WriteReq_accesses::.cpu.data    103413542                       # number of WriteReq accesses(hits+misses)
system.cpu.dcache.WriteReq_accesses::total    103413542                       # number of WriteReq accesses(hits+misses)
system.cpu.dcache.WriteReq_miss_rate::.cpu.data     0.025810                       # miss rate for WriteReq accesses
system.cpu.dcache.WriteReq_miss_rate::total     0.025810                       # miss rate for WriteReq accesses
system.cpu.dcache.power_state.pwrStateResidencyTicks::UNDEFINED 977033475000                       # Cumulative time (in ticks) in various power states
system.cpu.dcache.tags.tagsinuse           511.993977                       # Cycle average of tags in use
system.cpu.dcache.tags.total_refs           408066006                       # Total number of references to valid blocks.
system.cpu.dcache.tags.sampled_refs          12865165                       # Sample count of references to valid blocks.
system.cpu.dcache.tags.avg_refs             31.718676                       # Average number of references to valid blocks.
system.cpu.dcache.tags.warmup_cycle              1500                       # Cycle when the warmup percentage was hit.
system.cpu.dcache.tags.occ_blocks::.cpu.data   511.993977                       # Average occupied blocks per requestor
system.cpu.dcache.tags.occ_percent::.cpu.data     0.999988                       # Average percentage of cache occupancy
system.cpu.dcache.tags.occ_percent::total     0.999988                       # Average percentage of cache occupancy
system.cpu.dcache.tags.occ_task_id_blocks::1024          512                       # Occupied blocks per task id
system.cpu.dcache.tags.age_task_id_blocks_1024::0            4                       # Occupied blocks per task id
system.cpu.dcache.tags.age_task_id_blocks_1024::1           31                       # Occupied blocks per task id
system.cpu.dcache.tags.age_task_id_blocks_1024::2          367                       # Occupied blocks per task id
system.cpu.dcache.tags.age_task_id_blocks_1024::4          110                       # Occupied blocks per task id
system.cpu.dcache.tags.occ_task_id_percent::1024            1                       # Percentage of cache occupancy per task id
system.cpu.dcache.tags.tag_accesses        1645129189                       # Number of tag accesses
system.cpu.dcache.tags.data_accesses       1645129189                       # Number of data accesses
system.cpu.dcache.tags.power_state.pwrStateResidencyTicks::UNDEFINED 977033475000                       # Cumulative time (in ticks) in various power states
system.cpu.power_state.numTransitions               1                       # Number of power state transitions
system.cpu.power_state.pwrStateResidencyTicks::ON 977033475000                       # Cumulative time (in ticks) in various power states

---------- End Simulation Statistics   ----------
