
---------- Begin Simulation Statistics ----------
final_tick                               1366598542000                       # Number of ticks from beginning of simulation (restored from checkpoints and never reset)
host_inst_rate                                 897129                       # Simulator instruction rate (inst/s)
host_mem_usage                                 803572                       # Number of bytes of host memory used
host_op_rate                                  1707394                       # Simulator op (including micro ops) rate (op/s)
host_seconds                                  1653.03                       # Real time elapsed on the host
host_tick_rate                               84608600                       # Simulator tick rate (ticks/s)
sim_freq                                 1000000000000                       # Frequency of simulated ticks
sim_insts                                  1482977784                       # Number of instructions simulated
sim_ops                                    2822366342                       # Number of ops (including micro ops) simulated
sim_seconds                                  0.139860                       # Number of seconds simulated
sim_ticks                                139860194000                       # Number of ticks simulated
system.cpu.committedInsts                           0                       # Number of instructions committed
system.cpu.committedOps                             0                       # Number of ops (including micro ops) committed
system.cpu.dtb.rdAccesses                           0                       # TLB accesses on read requests
system.cpu.dtb.rdMisses                             0                       # TLB misses on read requests
system.cpu.dtb.wrAccesses                           0                       # TLB accesses on write requests
system.cpu.dtb.wrMisses                             0                       # TLB misses on write requests
system.cpu.idle_fraction                            0                       # Percentage of idle cycles
system.cpu.itb.rdAccesses                           0                       # TLB accesses on read requests
system.cpu.itb.rdMisses                             0                       # TLB misses on read requests
system.cpu.itb.wrAccesses                           0                       # TLB accesses on write requests
system.cpu.itb.wrMisses                             0                       # TLB misses on write requests
system.cpu.not_idle_fraction                        1                       # Percentage of non-idle cycles
system.cpu.numCycles                                0                       # number of cpu cycles simulated
system.cpu.numWorkItemsCompleted                    0                       # number of work items this cpu completed
system.cpu.numWorkItemsStarted                      0                       # number of work items this cpu started
system.cpu.num_busy_cycles                          0                       # Number of busy cycles
system.cpu.num_conditional_control_insts            0                       # number of instructions that are conditional controls
system.cpu.num_fp_alu_accesses                      0                       # Number of float alu accesses
system.cpu.num_fp_insts                             0                       # number of float instructions
system.cpu.num_fp_register_reads                    0                       # number of times the floating registers were read
system.cpu.num_fp_register_writes                   0                       # number of times the floating registers were written
system.cpu.num_func_calls                           0                       # number of times a function call or return occured
system.cpu.num_idle_cycles                          0                       # Number of idle cycles
system.cpu.num_int_alu_accesses                     0                       # Number of integer alu accesses
system.cpu.num_int_insts                            0                       # number of integer instructions
system.cpu.num_int_register_reads                   0                       # number of times the integer registers were read
system.cpu.num_int_register_writes                  0                       # number of times the integer registers were written
system.cpu.num_load_insts                           0                       # Number of load instructions
system.cpu.num_mem_refs                             0                       # number of memory refs
system.cpu.num_store_insts                          0                       # Number of store instructions
system.cpu.num_vec_alu_accesses                     0                       # Number of vector alu accesses
system.cpu.num_vec_insts                            0                       # number of vector instructions
system.cpu.num_vec_register_reads                   0                       # number of times the vector registers were read
system.cpu.num_vec_register_writes                  0                       # number of times the vector registers were written
system.cpu.op_class::No_OpClass                     0                       # Class of executed instruction
system.cpu.op_class::IntAlu                         0                       # Class of executed instruction
system.cpu.op_class::IntMult                        0                       # Class of executed instruction
system.cpu.op_class::IntDiv                         0                       # Class of executed instruction
system.cpu.op_class::FloatAdd                       0                       # Class of executed instruction
system.cpu.op_class::FloatCmp                       0                       # Class of executed instruction
system.cpu.op_class::FloatCvt                       0                       # Class of executed instruction
system.cpu.op_class::FloatMult                      0                       # Class of executed instruction
system.cpu.op_class::FloatMultAcc                   0                       # Class of executed instruction
system.cpu.op_class::FloatDiv                       0                       # Class of executed instruction
system.cpu.op_class::FloatMisc                      0                       # Class of executed instruction
system.cpu.op_class::FloatSqrt                      0                       # Class of executed instruction
system.cpu.op_class::SimdAdd                        0                       # Class of executed instruction
system.cpu.op_class::SimdAddAcc                     0                       # Class of executed instruction
system.cpu.op_class::SimdAlu                        0                       # Class of executed instruction
system.cpu.op_class::SimdCmp                        0                       # Class of executed instruction
system.cpu.op_class::SimdCvt                        0                       # Class of executed instruction
system.cpu.op_class::SimdMisc                       0                       # Class of executed instruction
system.cpu.op_class::SimdMult                       0                       # Class of executed instruction
system.cpu.op_class::SimdMultAcc                    0                       # Class of executed instruction
system.cpu.op_class::SimdShift                      0                       # Class of executed instruction
system.cpu.op_class::SimdShiftAcc                   0                       # Class of executed instruction
system.cpu.op_class::SimdDiv                        0                       # Class of executed instruction
system.cpu.op_class::SimdSqrt                       0                       # Class of executed instruction
system.cpu.op_class::SimdFloatAdd                   0                       # Class of executed instruction
system.cpu.op_class::SimdFloatAlu                   0                       # Class of executed instruction
system.cpu.op_class::SimdFloatCmp                   0                       # Class of executed instruction
system.cpu.op_class::SimdFloatCvt                   0                       # Class of executed instruction
system.cpu.op_class::SimdFloatDiv                   0                       # Class of executed instruction
system.cpu.op_class::SimdFloatMisc                  0                       # Class of executed instruction
system.cpu.op_class::SimdFloatMult                  0                       # Class of executed instruction
system.cpu.op_class::SimdFloatMultAcc               0                       # Class of executed instruction
system.cpu.op_class::SimdFloatSqrt                  0                       # Class of executed instruction
system.cpu.op_class::SimdReduceAdd                  0                       # Class of executed instruction
system.cpu.op_class::SimdReduceAlu                  0                       # Class of executed instruction
system.cpu.op_class::SimdReduceCmp                  0                       # Class of executed instruction
system.cpu.op_class::SimdFloatReduceAdd             0                       # Class of executed instruction
system.cpu.op_class::SimdFloatReduceCmp             0                       # Class of executed instruction
system.cpu.op_class::SimdAes                        0                       # Class of executed instruction
system.cpu.op_class::SimdAesMix                     0                       # Class of executed instruction
system.cpu.op_class::SimdSha1Hash                   0                       # Class of executed instruction
system.cpu.op_class::SimdSha1Hash2                  0                       # Class of executed instruction
system.cpu.op_class::SimdSha256Hash                 0                       # Class of executed instruction
system.cpu.op_class::SimdSha256Hash2                0                       # Class of executed instruction
system.cpu.op_class::SimdShaSigma2                  0                       # Class of executed instruction
system.cpu.op_class::SimdShaSigma3                  0                       # Class of executed instruction
system.cpu.op_class::SimdPredAlu                    0                       # Class of executed instruction
system.cpu.op_class::MemRead                        0                       # Class of executed instruction
system.cpu.op_class::MemWrite                       0                       # Class of executed instruction
system.cpu.op_class::FloatMemRead                   0                       # Class of executed instruction
system.cpu.op_class::FloatMemWrite                  0                       # Class of executed instruction
system.cpu.op_class::IprAccess                      0                       # Class of executed instruction
system.cpu.op_class::InstPrefetch                   0                       # Class of executed instruction
system.cpu.op_class::total                          0                       # Class of executed instruction
system.cpu.workload.numSyscalls                   227                       # Number of system calls
system.membus.snoop_filter.hit_multi_requests            0                       # Number of requests hitting in the snoop filter with multiple (>1) holders of the requested data.
system.membus.snoop_filter.hit_multi_snoops            0                       # Number of snoops hitting in the snoop filter with multiple (>1) holders of the requested data.
system.membus.snoop_filter.hit_single_requests       939942                       # Number of requests hitting in the snoop filter with a single holder of the requested data.
system.membus.snoop_filter.hit_single_snoops            0                       # Number of snoops hitting in the snoop filter with a single holder of the requested data.
system.membus.snoop_filter.tot_requests       1881417                       # Total number of requests made to the snoop filter.
system.membus.snoop_filter.tot_snoops               0                       # Total number of snoops made to the snoop filter.
system.switch_cpus.committedInsts                   0                       # Number of instructions committed
system.switch_cpus.committedOps                     0                       # Number of ops (including micro ops) committed
system.switch_cpus.dtb.rdAccesses                   0                       # TLB accesses on read requests
system.switch_cpus.dtb.rdMisses                     0                       # TLB misses on read requests
system.switch_cpus.dtb.wrAccesses                   0                       # TLB accesses on write requests
system.switch_cpus.dtb.wrMisses                     0                       # TLB misses on write requests
system.switch_cpus.idle_fraction                    0                       # Percentage of idle cycles
system.switch_cpus.itb.rdAccesses                   0                       # TLB accesses on read requests
system.switch_cpus.itb.rdMisses                     0                       # TLB misses on read requests
system.switch_cpus.itb.wrAccesses                   0                       # TLB accesses on write requests
system.switch_cpus.itb.wrMisses                     0                       # TLB misses on write requests
system.switch_cpus.not_idle_fraction                1                       # Percentage of non-idle cycles
system.switch_cpus.numCycles                        0                       # number of cpu cycles simulated
system.switch_cpus.numWorkItemsCompleted            0                       # number of work items this cpu completed
system.switch_cpus.numWorkItemsStarted              0                       # number of work items this cpu started
system.switch_cpus.num_busy_cycles                  0                       # Number of busy cycles
system.switch_cpus.num_conditional_control_insts            0                       # number of instructions that are conditional controls
system.switch_cpus.num_fp_alu_accesses              0                       # Number of float alu accesses
system.switch_cpus.num_fp_insts                     0                       # number of float instructions
system.switch_cpus.num_fp_register_reads            0                       # number of times the floating registers were read
system.switch_cpus.num_fp_register_writes            0                       # number of times the floating registers were written
system.switch_cpus.num_func_calls                   0                       # number of times a function call or return occured
system.switch_cpus.num_idle_cycles                  0                       # Number of idle cycles
system.switch_cpus.num_int_alu_accesses             0                       # Number of integer alu accesses
system.switch_cpus.num_int_insts                    0                       # number of integer instructions
system.switch_cpus.num_int_register_reads            0                       # number of times the integer registers were read
system.switch_cpus.num_int_register_writes            0                       # number of times the integer registers were written
system.switch_cpus.num_load_insts                   0                       # Number of load instructions
system.switch_cpus.num_mem_refs                     0                       # number of memory refs
system.switch_cpus.num_store_insts                  0                       # Number of store instructions
system.switch_cpus.num_vec_alu_accesses             0                       # Number of vector alu accesses
system.switch_cpus.num_vec_insts                    0                       # number of vector instructions
system.switch_cpus.num_vec_register_reads            0                       # number of times the vector registers were read
system.switch_cpus.num_vec_register_writes            0                       # number of times the vector registers were written
system.switch_cpus.op_class::No_OpClass             0                       # Class of executed instruction
system.switch_cpus.op_class::IntAlu                 0                       # Class of executed instruction
system.switch_cpus.op_class::IntMult                0                       # Class of executed instruction
system.switch_cpus.op_class::IntDiv                 0                       # Class of executed instruction
system.switch_cpus.op_class::FloatAdd               0                       # Class of executed instruction
system.switch_cpus.op_class::FloatCmp               0                       # Class of executed instruction
system.switch_cpus.op_class::FloatCvt               0                       # Class of executed instruction
system.switch_cpus.op_class::FloatMult              0                       # Class of executed instruction
system.switch_cpus.op_class::FloatMultAcc            0                       # Class of executed instruction
system.switch_cpus.op_class::FloatDiv               0                       # Class of executed instruction
system.switch_cpus.op_class::FloatMisc              0                       # Class of executed instruction
system.switch_cpus.op_class::FloatSqrt              0                       # Class of executed instruction
system.switch_cpus.op_class::SimdAdd                0                       # Class of executed instruction
system.switch_cpus.op_class::SimdAddAcc             0                       # Class of executed instruction
system.switch_cpus.op_class::SimdAlu                0                       # Class of executed instruction
system.switch_cpus.op_class::SimdCmp                0                       # Class of executed instruction
system.switch_cpus.op_class::SimdCvt                0                       # Class of executed instruction
system.switch_cpus.op_class::SimdMisc               0                       # Class of executed instruction
system.switch_cpus.op_class::SimdMult               0                       # Class of executed instruction
system.switch_cpus.op_class::SimdMultAcc            0                       # Class of executed instruction
system.switch_cpus.op_class::SimdShift              0                       # Class of executed instruction
system.switch_cpus.op_class::SimdShiftAcc            0                       # Class of executed instruction
system.switch_cpus.op_class::SimdDiv                0                       # Class of executed instruction
system.switch_cpus.op_class::SimdSqrt               0                       # Class of executed instruction
system.switch_cpus.op_class::SimdFloatAdd            0                       # Class of executed instruction
system.switch_cpus.op_class::SimdFloatAlu            0                       # Class of executed instruction
system.switch_cpus.op_class::SimdFloatCmp            0                       # Class of executed instruction
system.switch_cpus.op_class::SimdFloatCvt            0                       # Class of executed instruction
system.switch_cpus.op_class::SimdFloatDiv            0                       # Class of executed instruction
system.switch_cpus.op_class::SimdFloatMisc            0                       # Class of executed instruction
system.switch_cpus.op_class::SimdFloatMult            0                       # Class of executed instruction
system.switch_cpus.op_class::SimdFloatMultAcc            0                       # Class of executed instruction
system.switch_cpus.op_class::SimdFloatSqrt            0                       # Class of executed instruction
system.switch_cpus.op_class::SimdReduceAdd            0                       # Class of executed instruction
system.switch_cpus.op_class::SimdReduceAlu            0                       # Class of executed instruction
system.switch_cpus.op_class::SimdReduceCmp            0                       # Class of executed instruction
system.switch_cpus.op_class::SimdFloatReduceAdd            0                       # Class of executed instruction
system.switch_cpus.op_class::SimdFloatReduceCmp            0                       # Class of executed instruction
system.switch_cpus.op_class::SimdAes                0                       # Class of executed instruction
system.switch_cpus.op_class::SimdAesMix             0                       # Class of executed instruction
system.switch_cpus.op_class::SimdSha1Hash            0                       # Class of executed instruction
system.switch_cpus.op_class::SimdSha1Hash2            0                       # Class of executed instruction
system.switch_cpus.op_class::SimdSha256Hash            0                       # Class of executed instruction
system.switch_cpus.op_class::SimdSha256Hash2            0                       # Class of executed instruction
system.switch_cpus.op_class::SimdShaSigma2            0                       # Class of executed instruction
system.switch_cpus.op_class::SimdShaSigma3            0                       # Class of executed instruction
system.switch_cpus.op_class::SimdPredAlu            0                       # Class of executed instruction
system.switch_cpus.op_class::MemRead                0                       # Class of executed instruction
system.switch_cpus.op_class::MemWrite               0                       # Class of executed instruction
system.switch_cpus.op_class::FloatMemRead            0                       # Class of executed instruction
system.switch_cpus.op_class::FloatMemWrite            0                       # Class of executed instruction
system.switch_cpus.op_class::IprAccess              0                       # Class of executed instruction
system.switch_cpus.op_class::InstPrefetch            0                       # Class of executed instruction
system.switch_cpus.op_class::total                  0                       # Class of executed instruction
system.switch_cpus_1.branchPred.BTBCorrect            0                       # Number of correct BTB predictions (this stat may not work properly.
system.switch_cpus_1.branchPred.BTBHitPct          nan                       # BTB Hit Percentage
system.switch_cpus_1.branchPred.BTBHits             0                       # Number of BTB hits
system.switch_cpus_1.branchPred.BTBLookups            0                       # Number of BTB lookups
system.switch_cpus_1.branchPred.RASInCorrect           25                       # Number of incorrect RAS predictions.
system.switch_cpus_1.branchPred.condIncorrect      3781074                       # Number of conditional branches incorrect
system.switch_cpus_1.branchPred.condPredicted     86200824                       # Number of conditional branches predicted
system.switch_cpus_1.branchPred.indirectHits     39490063                       # Number of indirect target hits.
system.switch_cpus_1.branchPred.indirectLookups     48888961                       # Number of indirect predictor lookups.
system.switch_cpus_1.branchPred.indirectMisses      9398898                       # Number of indirect misses.
system.switch_cpus_1.branchPred.lookups     100604892                       # Number of BP lookups
system.switch_cpus_1.branchPred.usedRAS       6738510                       # Number of times the RAS was used to get a target.
system.switch_cpus_1.branchPredindirectMispredicted      2903684                       # Number of mispredicted indirect branches.
system.switch_cpus_1.cc_regfile_reads       400157591                       # number of cc regfile reads
system.switch_cpus_1.cc_regfile_writes      256474863                       # number of cc regfile writes
system.switch_cpus_1.commit.amos                    0                       # Number of atomic instructions committed
system.switch_cpus_1.commit.branchMispredicts      3782805                       # The number of times a branch was mispredicted
system.switch_cpus_1.commit.branches         74137432                       # Number of branches committed
system.switch_cpus_1.commit.bw_lim_events     59490090                       # number cycles where commit BW limit reached
system.switch_cpus_1.commit.commitNonSpecStalls          447                       # The number of times commit has been forced to stall to communicate backwards
system.switch_cpus_1.commit.commitSquashedInsts    134679460                       # The number of squashed insts skipped by commit
system.switch_cpus_1.commit.committedInsts    382977782                       # Number of instructions committed
system.switch_cpus_1.commit.committedOps    726181725                       # Number of ops (including micro ops) committed
system.switch_cpus_1.commit.committed_per_cycle::samples    259887282                       # Number of insts commited each cycle
system.switch_cpus_1.commit.committed_per_cycle::mean     2.794218                       # Number of insts commited each cycle
system.switch_cpus_1.commit.committed_per_cycle::stdev     3.318111                       # Number of insts commited each cycle
system.switch_cpus_1.commit.committed_per_cycle::underflows            0      0.00%      0.00% # Number of insts commited each cycle
system.switch_cpus_1.commit.committed_per_cycle::0    121834542     46.88%     46.88% # Number of insts commited each cycle
system.switch_cpus_1.commit.committed_per_cycle::1     18034124      6.94%     53.82% # Number of insts commited each cycle
system.switch_cpus_1.commit.committed_per_cycle::2     16153663      6.22%     60.03% # Number of insts commited each cycle
system.switch_cpus_1.commit.committed_per_cycle::3     17979657      6.92%     66.95% # Number of insts commited each cycle
system.switch_cpus_1.commit.committed_per_cycle::4      5508070      2.12%     69.07% # Number of insts commited each cycle
system.switch_cpus_1.commit.committed_per_cycle::5      8202337      3.16%     72.23% # Number of insts commited each cycle
system.switch_cpus_1.commit.committed_per_cycle::6      5856974      2.25%     74.48% # Number of insts commited each cycle
system.switch_cpus_1.commit.committed_per_cycle::7      6827825      2.63%     77.11% # Number of insts commited each cycle
system.switch_cpus_1.commit.committed_per_cycle::8     59490090     22.89%    100.00% # Number of insts commited each cycle
system.switch_cpus_1.commit.committed_per_cycle::overflows            0      0.00%    100.00% # Number of insts commited each cycle
system.switch_cpus_1.commit.committed_per_cycle::min_value            0                       # Number of insts commited each cycle
system.switch_cpus_1.commit.committed_per_cycle::max_value            8                       # Number of insts commited each cycle
system.switch_cpus_1.commit.committed_per_cycle::total    259887282                       # Number of insts commited each cycle
system.switch_cpus_1.commit.fp_insts         49455015                       # Number of committed floating point instructions.
system.switch_cpus_1.commit.function_calls      4443722                       # Number of function calls committed.
system.switch_cpus_1.commit.int_insts       689586746                       # Number of committed integer instructions.
system.switch_cpus_1.commit.loads            95454534                       # Number of loads committed
system.switch_cpus_1.commit.membars               108                       # Number of memory barriers committed
system.switch_cpus_1.commit.op_class_0::No_OpClass      1664250      0.23%      0.23% # Class of committed instruction
system.switch_cpus_1.commit.op_class_0::IntAlu    541530113     74.57%     74.80% # Class of committed instruction
system.switch_cpus_1.commit.op_class_0::IntMult       472761      0.07%     74.87% # Class of committed instruction
system.switch_cpus_1.commit.op_class_0::IntDiv      1551672      0.21%     75.08% # Class of committed instruction
system.switch_cpus_1.commit.op_class_0::FloatAdd      7703583      1.06%     76.14% # Class of committed instruction
system.switch_cpus_1.commit.op_class_0::FloatCmp            0      0.00%     76.14% # Class of committed instruction
system.switch_cpus_1.commit.op_class_0::FloatCvt           96      0.00%     76.14% # Class of committed instruction
system.switch_cpus_1.commit.op_class_0::FloatMult            0      0.00%     76.14% # Class of committed instruction
system.switch_cpus_1.commit.op_class_0::FloatMultAcc            0      0.00%     76.14% # Class of committed instruction
system.switch_cpus_1.commit.op_class_0::FloatDiv            0      0.00%     76.14% # Class of committed instruction
system.switch_cpus_1.commit.op_class_0::FloatMisc            0      0.00%     76.14% # Class of committed instruction
system.switch_cpus_1.commit.op_class_0::FloatSqrt            0      0.00%     76.14% # Class of committed instruction
system.switch_cpus_1.commit.op_class_0::SimdAdd           84      0.00%     76.14% # Class of committed instruction
system.switch_cpus_1.commit.op_class_0::SimdAddAcc            0      0.00%     76.14% # Class of committed instruction
system.switch_cpus_1.commit.op_class_0::SimdAlu      3545270      0.49%     76.63% # Class of committed instruction
system.switch_cpus_1.commit.op_class_0::SimdCmp            0      0.00%     76.63% # Class of committed instruction
system.switch_cpus_1.commit.op_class_0::SimdCvt      1674334      0.23%     76.86% # Class of committed instruction
system.switch_cpus_1.commit.op_class_0::SimdMisc      4843197      0.67%     77.53% # Class of committed instruction
system.switch_cpus_1.commit.op_class_0::SimdMult            0      0.00%     77.53% # Class of committed instruction
system.switch_cpus_1.commit.op_class_0::SimdMultAcc            0      0.00%     77.53% # Class of committed instruction
system.switch_cpus_1.commit.op_class_0::SimdShift           42      0.00%     77.53% # Class of committed instruction
system.switch_cpus_1.commit.op_class_0::SimdShiftAcc            0      0.00%     77.53% # Class of committed instruction
system.switch_cpus_1.commit.op_class_0::SimdDiv            0      0.00%     77.53% # Class of committed instruction
system.switch_cpus_1.commit.op_class_0::SimdSqrt            0      0.00%     77.53% # Class of committed instruction
system.switch_cpus_1.commit.op_class_0::SimdFloatAdd      3796402      0.52%     78.05% # Class of committed instruction
system.switch_cpus_1.commit.op_class_0::SimdFloatAlu            0      0.00%     78.05% # Class of committed instruction
system.switch_cpus_1.commit.op_class_0::SimdFloatCmp            0      0.00%     78.05% # Class of committed instruction
system.switch_cpus_1.commit.op_class_0::SimdFloatCvt      8621543      1.19%     79.24% # Class of committed instruction
system.switch_cpus_1.commit.op_class_0::SimdFloatDiv       110643      0.02%     79.25% # Class of committed instruction
system.switch_cpus_1.commit.op_class_0::SimdFloatMisc            0      0.00%     79.25% # Class of committed instruction
system.switch_cpus_1.commit.op_class_0::SimdFloatMult      1871674      0.26%     79.51% # Class of committed instruction
system.switch_cpus_1.commit.op_class_0::SimdFloatMultAcc            0      0.00%     79.51% # Class of committed instruction
system.switch_cpus_1.commit.op_class_0::SimdFloatSqrt            0      0.00%     79.51% # Class of committed instruction
system.switch_cpus_1.commit.op_class_0::SimdReduceAdd            0      0.00%     79.51% # Class of committed instruction
system.switch_cpus_1.commit.op_class_0::SimdReduceAlu            0      0.00%     79.51% # Class of committed instruction
system.switch_cpus_1.commit.op_class_0::SimdReduceCmp            0      0.00%     79.51% # Class of committed instruction
system.switch_cpus_1.commit.op_class_0::SimdFloatReduceAdd            0      0.00%     79.51% # Class of committed instruction
system.switch_cpus_1.commit.op_class_0::SimdFloatReduceCmp            0      0.00%     79.51% # Class of committed instruction
system.switch_cpus_1.commit.op_class_0::SimdAes            0      0.00%     79.51% # Class of committed instruction
system.switch_cpus_1.commit.op_class_0::SimdAesMix            0      0.00%     79.51% # Class of committed instruction
system.switch_cpus_1.commit.op_class_0::SimdSha1Hash            0      0.00%     79.51% # Class of committed instruction
system.switch_cpus_1.commit.op_class_0::SimdSha1Hash2            0      0.00%     79.51% # Class of committed instruction
system.switch_cpus_1.commit.op_class_0::SimdSha256Hash            0      0.00%     79.51% # Class of committed instruction
system.switch_cpus_1.commit.op_class_0::SimdSha256Hash2            0      0.00%     79.51% # Class of committed instruction
system.switch_cpus_1.commit.op_class_0::SimdShaSigma2            0      0.00%     79.51% # Class of committed instruction
system.switch_cpus_1.commit.op_class_0::SimdShaSigma3            0      0.00%     79.51% # Class of committed instruction
system.switch_cpus_1.commit.op_class_0::SimdPredAlu            0      0.00%     79.51% # Class of committed instruction
system.switch_cpus_1.commit.op_class_0::MemRead     86152489     11.86%     91.37% # Class of committed instruction
system.switch_cpus_1.commit.op_class_0::MemWrite     51019903      7.03%     98.40% # Class of committed instruction
system.switch_cpus_1.commit.op_class_0::FloatMemRead      9302045      1.28%     99.68% # Class of committed instruction
system.switch_cpus_1.commit.op_class_0::FloatMemWrite      2321624      0.32%    100.00% # Class of committed instruction
system.switch_cpus_1.commit.op_class_0::IprAccess            0      0.00%    100.00% # Class of committed instruction
system.switch_cpus_1.commit.op_class_0::InstPrefetch            0      0.00%    100.00% # Class of committed instruction
system.switch_cpus_1.commit.op_class_0::total    726181725                       # Class of committed instruction
system.switch_cpus_1.commit.refs            148796061                       # Number of memory references committed
system.switch_cpus_1.commit.swp_count               0                       # Number of s/w prefetches committed
system.switch_cpus_1.commit.vec_insts               0                       # Number of committed Vector instructions.
system.switch_cpus_1.committedInsts         382977782                       # Number of Instructions Simulated
system.switch_cpus_1.committedOps           726181725                       # Number of Ops (including micro ops) Simulated
system.switch_cpus_1.cpi                     0.730383                       # CPI: Cycles Per Instruction
system.switch_cpus_1.cpi_total               0.730383                       # CPI: Total CPI of All Threads
system.switch_cpus_1.decode.BlockedCycles    122029144                       # Number of cycles decode is blocked
system.switch_cpus_1.decode.DecodedInsts    928418266                       # Number of instructions handled by decode
system.switch_cpus_1.decode.IdleCycles       21140474                       # Number of cycles decode is idle
system.switch_cpus_1.decode.RunCycles       115819622                       # Number of cycles decode is running
system.switch_cpus_1.decode.SquashCycles      3792319                       # Number of cycles decode is squashing
system.switch_cpus_1.decode.UnblockCycles     16788840                       # Number of cycles decode is unblocking
system.switch_cpus_1.dtb.rdAccesses         105418504                       # TLB accesses on read requests
system.switch_cpus_1.dtb.rdMisses              385942                       # TLB misses on read requests
system.switch_cpus_1.dtb.wrAccesses          59070657                       # TLB accesses on write requests
system.switch_cpus_1.dtb.wrMisses              209625                       # TLB misses on write requests
system.switch_cpus_1.fetch.Branches         100604892                       # Number of branches that fetch encountered
system.switch_cpus_1.fetch.CacheLines        67510824                       # Number of cache lines fetched
system.switch_cpus_1.fetch.Cycles           268052654                       # Number of cycles fetch has run and was not squashing or blocked
system.switch_cpus_1.fetch.IcacheSquashes       134294                       # Number of outstanding Icache misses that were squashed
system.switch_cpus_1.fetch.IcacheWaitRetryStallCycles          583                       # Number of stall cycles due to full MSHR
system.switch_cpus_1.fetch.Insts            513115963                       # Number of instructions fetch has processed
system.switch_cpus_1.fetch.MiscStallCycles         1804                       # Number of cycles fetch has spent waiting on interrupts, or bad addresses, or out of MSHRs
system.switch_cpus_1.fetch.PendingTrapStallCycles        16831                       # Number of stall cycles due to pending traps
system.switch_cpus_1.fetch.SquashCycles       7584638                       # Number of cycles fetch has spent squashing
system.switch_cpus_1.fetch.branchRate        0.359662                       # Number of branch fetches per cycle
system.switch_cpus_1.fetch.icacheStallCycles      7706216                       # Number of cycles fetch is stalled on an Icache miss
system.switch_cpus_1.fetch.predictedBranches     46228573                       # Number of branches that fetch has predicted taken
system.switch_cpus_1.fetch.rate              1.834389                       # Number of inst fetches per cycle
system.switch_cpus_1.fetch.rateDist::samples    279570407                       # Number of instructions fetched each cycle (Total)
system.switch_cpus_1.fetch.rateDist::mean     3.506205                       # Number of instructions fetched each cycle (Total)
system.switch_cpus_1.fetch.rateDist::stdev     3.558899                       # Number of instructions fetched each cycle (Total)
system.switch_cpus_1.fetch.rateDist::underflows            0      0.00%      0.00% # Number of instructions fetched each cycle (Total)
system.switch_cpus_1.fetch.rateDist::0      118756892     42.48%     42.48% # Number of instructions fetched each cycle (Total)
system.switch_cpus_1.fetch.rateDist::1       14259494      5.10%     47.58% # Number of instructions fetched each cycle (Total)
system.switch_cpus_1.fetch.rateDist::2        7883506      2.82%     50.40% # Number of instructions fetched each cycle (Total)
system.switch_cpus_1.fetch.rateDist::3       12382242      4.43%     54.83% # Number of instructions fetched each cycle (Total)
system.switch_cpus_1.fetch.rateDist::4       10539256      3.77%     58.60% # Number of instructions fetched each cycle (Total)
system.switch_cpus_1.fetch.rateDist::5        8554378      3.06%     61.66% # Number of instructions fetched each cycle (Total)
system.switch_cpus_1.fetch.rateDist::6        9552544      3.42%     65.07% # Number of instructions fetched each cycle (Total)
system.switch_cpus_1.fetch.rateDist::7       10322875      3.69%     68.77% # Number of instructions fetched each cycle (Total)
system.switch_cpus_1.fetch.rateDist::8       87319220     31.23%    100.00% # Number of instructions fetched each cycle (Total)
system.switch_cpus_1.fetch.rateDist::overflows            0      0.00%    100.00% # Number of instructions fetched each cycle (Total)
system.switch_cpus_1.fetch.rateDist::min_value            0                       # Number of instructions fetched each cycle (Total)
system.switch_cpus_1.fetch.rateDist::max_value            8                       # Number of instructions fetched each cycle (Total)
system.switch_cpus_1.fetch.rateDist::total    279570407                       # Number of instructions fetched each cycle (Total)
system.switch_cpus_1.fp_regfile_reads        72455278                       # number of floating regfile reads
system.switch_cpus_1.fp_regfile_writes       45588470                       # number of floating regfile writes
system.switch_cpus_1.idleCycles                149981                       # Total number of cycles that the CPU has spent unscheduled due to idling
system.switch_cpus_1.iew.branchMispredicts      5104282                       # Number of branch mispredicts detected at execute
system.switch_cpus_1.iew.exec_branches       78952894                       # Number of branches executed
system.switch_cpus_1.iew.exec_nop                   0                       # number of nop insts executed
system.switch_cpus_1.iew.exec_rate           2.862740                       # Inst execution rate
system.switch_cpus_1.iew.exec_refs          165352902                       # number of memory reference insts executed
system.switch_cpus_1.iew.exec_stores         59068205                       # Number of stores executed
system.switch_cpus_1.iew.exec_swp                   0                       # number of swp insts executed
system.switch_cpus_1.iew.iewBlockCycles      43402542                       # Number of cycles IEW is blocking
system.switch_cpus_1.iew.iewDispLoadInsts    114911400                       # Number of dispatched load instructions
system.switch_cpus_1.iew.iewDispNonSpecInsts       108974                       # Number of dispatched non-speculative instructions
system.switch_cpus_1.iew.iewDispSquashedInsts       161929                       # Number of squashed instructions skipped by dispatch
system.switch_cpus_1.iew.iewDispStoreInsts     65821352                       # Number of dispatched store instructions
system.switch_cpus_1.iew.iewDispatchedInsts    860964363                       # Number of instructions dispatched to IQ
system.switch_cpus_1.iew.iewExecLoadInsts    106284697                       # Number of load instructions executed
system.switch_cpus_1.iew.iewExecSquashedInsts      9300321                       # Number of squashed instructions skipped in execute
system.switch_cpus_1.iew.iewExecutedInsts    800766807                       # Number of executed instructions
system.switch_cpus_1.iew.iewIQFullEvents       239299                       # Number of times the IQ has become full, causing a stall
system.switch_cpus_1.iew.iewIdleCycles              0                       # Number of cycles IEW is idle
system.switch_cpus_1.iew.iewLSQFullEvents      1817726                       # Number of times the LSQ has become full, causing a stall
system.switch_cpus_1.iew.iewSquashCycles      3792319                       # Number of cycles IEW is squashing
system.switch_cpus_1.iew.iewUnblockCycles      2288526                       # Number of cycles IEW is unblocking
system.switch_cpus_1.iew.lsq.thread0.blockedLoads            0                       # Number of blocked loads due to partial load-store forwarding
system.switch_cpus_1.iew.lsq.thread0.cacheBlocked       221980                       # Number of times an access to memory failed due to the cache being blocked
system.switch_cpus_1.iew.lsq.thread0.forwLoads     10591144                       # Number of loads that had data forwarded from stores
system.switch_cpus_1.iew.lsq.thread0.ignoredResponses        19731                       # Number of memory responses ignored because the instruction is squashed
system.switch_cpus_1.iew.lsq.thread0.invAddrLoads            0                       # Number of loads ignored due to an invalid address
system.switch_cpus_1.iew.lsq.thread0.invAddrSwpfs            0                       # Number of software prefetches ignored due to an invalid address
system.switch_cpus_1.iew.lsq.thread0.memOrderViolation         8819                       # Number of memory ordering violations
system.switch_cpus_1.iew.lsq.thread0.rescheduledLoads         1456                       # Number of loads that were rescheduled
system.switch_cpus_1.iew.lsq.thread0.squashedLoads     19456858                       # Number of loads squashed
system.switch_cpus_1.iew.lsq.thread0.squashedStores     12479825                       # Number of stores squashed
system.switch_cpus_1.iew.memOrderViolationEvents         8819                       # Number of memory order violations
system.switch_cpus_1.iew.predictedNotTakenIncorrect      4795023                       # Number of branches that were predicted not taken incorrectly
system.switch_cpus_1.iew.predictedTakenIncorrect       309259                       # Number of branches that were predicted taken incorrectly
system.switch_cpus_1.iew.wb_consumers       975587001                       # num instructions consuming a value
system.switch_cpus_1.iew.wb_count           796788868                       # cumulative count of insts written-back
system.switch_cpus_1.iew.wb_fanout           0.609024                       # average fanout of values written-back
system.switch_cpus_1.iew.wb_producers       594155954                       # num instructions producing a value
system.switch_cpus_1.iew.wb_rate             2.848519                       # insts written-back per cycle
system.switch_cpus_1.iew.wb_sent            799369404                       # cumulative count of insts sent to commit
system.switch_cpus_1.int_regfile_reads     1133152744                       # number of integer regfile reads
system.switch_cpus_1.int_regfile_writes     613776392                       # number of integer regfile writes
system.switch_cpus_1.ipc                     1.369145                       # IPC: Instructions Per Cycle
system.switch_cpus_1.ipc_total               1.369145                       # IPC: Total IPC of All Threads
system.switch_cpus_1.iq.FU_type_0::No_OpClass      2633024      0.33%      0.33% # Type of FU issued
system.switch_cpus_1.iq.FU_type_0::IntAlu    601120583     74.21%     74.53% # Type of FU issued
system.switch_cpus_1.iq.FU_type_0::IntMult       524972      0.06%     74.60% # Type of FU issued
system.switch_cpus_1.iq.FU_type_0::IntDiv      1583510      0.20%     74.79% # Type of FU issued
system.switch_cpus_1.iq.FU_type_0::FloatAdd      8515987      1.05%     75.84% # Type of FU issued
system.switch_cpus_1.iq.FU_type_0::FloatCmp            0      0.00%     75.84% # Type of FU issued
system.switch_cpus_1.iq.FU_type_0::FloatCvt          629      0.00%     75.84% # Type of FU issued
system.switch_cpus_1.iq.FU_type_0::FloatMult            0      0.00%     75.84% # Type of FU issued
system.switch_cpus_1.iq.FU_type_0::FloatMultAcc            0      0.00%     75.84% # Type of FU issued
system.switch_cpus_1.iq.FU_type_0::FloatDiv            0      0.00%     75.84% # Type of FU issued
system.switch_cpus_1.iq.FU_type_0::FloatMisc            0      0.00%     75.84% # Type of FU issued
system.switch_cpus_1.iq.FU_type_0::FloatSqrt            0      0.00%     75.84% # Type of FU issued
system.switch_cpus_1.iq.FU_type_0::SimdAdd          134      0.00%     75.84% # Type of FU issued
system.switch_cpus_1.iq.FU_type_0::SimdAddAcc            0      0.00%     75.84% # Type of FU issued
system.switch_cpus_1.iq.FU_type_0::SimdAlu      4055574      0.50%     76.34% # Type of FU issued
system.switch_cpus_1.iq.FU_type_0::SimdCmp          701      0.00%     76.34% # Type of FU issued
system.switch_cpus_1.iq.FU_type_0::SimdCvt      2263908      0.28%     76.62% # Type of FU issued
system.switch_cpus_1.iq.FU_type_0::SimdMisc      5509861      0.68%     77.30% # Type of FU issued
system.switch_cpus_1.iq.FU_type_0::SimdMult            0      0.00%     77.30% # Type of FU issued
system.switch_cpus_1.iq.FU_type_0::SimdMultAcc            0      0.00%     77.30% # Type of FU issued
system.switch_cpus_1.iq.FU_type_0::SimdShift          129      0.00%     77.30% # Type of FU issued
system.switch_cpus_1.iq.FU_type_0::SimdShiftAcc            0      0.00%     77.30% # Type of FU issued
system.switch_cpus_1.iq.FU_type_0::SimdDiv            0      0.00%     77.30% # Type of FU issued
system.switch_cpus_1.iq.FU_type_0::SimdSqrt            0      0.00%     77.30% # Type of FU issued
system.switch_cpus_1.iq.FU_type_0::SimdFloatAdd      3888410      0.48%     77.78% # Type of FU issued
system.switch_cpus_1.iq.FU_type_0::SimdFloatAlu            0      0.00%     77.78% # Type of FU issued
system.switch_cpus_1.iq.FU_type_0::SimdFloatCmp            0      0.00%     77.78% # Type of FU issued
system.switch_cpus_1.iq.FU_type_0::SimdFloatCvt      8706462      1.07%     78.86% # Type of FU issued
system.switch_cpus_1.iq.FU_type_0::SimdFloatDiv       110662      0.01%     78.87% # Type of FU issued
system.switch_cpus_1.iq.FU_type_0::SimdFloatMisc            0      0.00%     78.87% # Type of FU issued
system.switch_cpus_1.iq.FU_type_0::SimdFloatMult      1987929      0.25%     79.12% # Type of FU issued
system.switch_cpus_1.iq.FU_type_0::SimdFloatMultAcc            0      0.00%     79.12% # Type of FU issued
system.switch_cpus_1.iq.FU_type_0::SimdFloatSqrt            0      0.00%     79.12% # Type of FU issued
system.switch_cpus_1.iq.FU_type_0::SimdReduceAdd            0      0.00%     79.12% # Type of FU issued
system.switch_cpus_1.iq.FU_type_0::SimdReduceAlu            0      0.00%     79.12% # Type of FU issued
system.switch_cpus_1.iq.FU_type_0::SimdReduceCmp            0      0.00%     79.12% # Type of FU issued
system.switch_cpus_1.iq.FU_type_0::SimdFloatReduceAdd            0      0.00%     79.12% # Type of FU issued
system.switch_cpus_1.iq.FU_type_0::SimdFloatReduceCmp            0      0.00%     79.12% # Type of FU issued
system.switch_cpus_1.iq.FU_type_0::SimdAes            0      0.00%     79.12% # Type of FU issued
system.switch_cpus_1.iq.FU_type_0::SimdAesMix            0      0.00%     79.12% # Type of FU issued
system.switch_cpus_1.iq.FU_type_0::SimdSha1Hash            0      0.00%     79.12% # Type of FU issued
system.switch_cpus_1.iq.FU_type_0::SimdSha1Hash2            0      0.00%     79.12% # Type of FU issued
system.switch_cpus_1.iq.FU_type_0::SimdSha256Hash            0      0.00%     79.12% # Type of FU issued
system.switch_cpus_1.iq.FU_type_0::SimdSha256Hash2            0      0.00%     79.12% # Type of FU issued
system.switch_cpus_1.iq.FU_type_0::SimdShaSigma2            0      0.00%     79.12% # Type of FU issued
system.switch_cpus_1.iq.FU_type_0::SimdShaSigma3            0      0.00%     79.12% # Type of FU issued
system.switch_cpus_1.iq.FU_type_0::SimdPredAlu            0      0.00%     79.12% # Type of FU issued
system.switch_cpus_1.iq.FU_type_0::MemRead     97519572     12.04%     91.16% # Type of FU issued
system.switch_cpus_1.iq.FU_type_0::MemWrite     57938572      7.15%     98.31% # Type of FU issued
system.switch_cpus_1.iq.FU_type_0::FloatMemRead     10798970      1.33%     99.64% # Type of FU issued
system.switch_cpus_1.iq.FU_type_0::FloatMemWrite      2907541      0.36%    100.00% # Type of FU issued
system.switch_cpus_1.iq.FU_type_0::IprAccess            0      0.00%    100.00% # Type of FU issued
system.switch_cpus_1.iq.FU_type_0::InstPrefetch            0      0.00%    100.00% # Type of FU issued
system.switch_cpus_1.iq.FU_type_0::total    810067130                       # Type of FU issued
system.switch_cpus_1.iq.fp_alu_accesses      56188467                       # Number of floating point alu accesses
system.switch_cpus_1.iq.fp_inst_queue_reads    111129910                       # Number of floating instruction queue reads
system.switch_cpus_1.iq.fp_inst_queue_wakeup_accesses     54280030                       # Number of floating instruction queue wakeup accesses
system.switch_cpus_1.iq.fp_inst_queue_writes     69512833                       # Number of floating instruction queue writes
system.switch_cpus_1.iq.fu_busy_cnt          23690730                       # FU busy when requested
system.switch_cpus_1.iq.fu_busy_rate         0.029245                       # FU busy rate (busy events/executed inst)
system.switch_cpus_1.iq.fu_full::No_OpClass            0      0.00%      0.00% # attempts to use FU when none available
system.switch_cpus_1.iq.fu_full::IntAlu      19320433     81.55%     81.55% # attempts to use FU when none available
system.switch_cpus_1.iq.fu_full::IntMult            0      0.00%     81.55% # attempts to use FU when none available
system.switch_cpus_1.iq.fu_full::IntDiv             0      0.00%     81.55% # attempts to use FU when none available
system.switch_cpus_1.iq.fu_full::FloatAdd            0      0.00%     81.55% # attempts to use FU when none available
system.switch_cpus_1.iq.fu_full::FloatCmp            0      0.00%     81.55% # attempts to use FU when none available
system.switch_cpus_1.iq.fu_full::FloatCvt            0      0.00%     81.55% # attempts to use FU when none available
system.switch_cpus_1.iq.fu_full::FloatMult            0      0.00%     81.55% # attempts to use FU when none available
system.switch_cpus_1.iq.fu_full::FloatMultAcc            0      0.00%     81.55% # attempts to use FU when none available
system.switch_cpus_1.iq.fu_full::FloatDiv            0      0.00%     81.55% # attempts to use FU when none available
system.switch_cpus_1.iq.fu_full::FloatMisc            0      0.00%     81.55% # attempts to use FU when none available
system.switch_cpus_1.iq.fu_full::FloatSqrt            0      0.00%     81.55% # attempts to use FU when none available
system.switch_cpus_1.iq.fu_full::SimdAdd            0      0.00%     81.55% # attempts to use FU when none available
system.switch_cpus_1.iq.fu_full::SimdAddAcc            0      0.00%     81.55% # attempts to use FU when none available
system.switch_cpus_1.iq.fu_full::SimdAlu        59778      0.25%     81.81% # attempts to use FU when none available
system.switch_cpus_1.iq.fu_full::SimdCmp           16      0.00%     81.81% # attempts to use FU when none available
system.switch_cpus_1.iq.fu_full::SimdCvt       263565      1.11%     82.92% # attempts to use FU when none available
system.switch_cpus_1.iq.fu_full::SimdMisc        43658      0.18%     83.10% # attempts to use FU when none available
system.switch_cpus_1.iq.fu_full::SimdMult            0      0.00%     83.10% # attempts to use FU when none available
system.switch_cpus_1.iq.fu_full::SimdMultAcc            0      0.00%     83.10% # attempts to use FU when none available
system.switch_cpus_1.iq.fu_full::SimdShift            0      0.00%     83.10% # attempts to use FU when none available
system.switch_cpus_1.iq.fu_full::SimdShiftAcc            0      0.00%     83.10% # attempts to use FU when none available
system.switch_cpus_1.iq.fu_full::SimdDiv            0      0.00%     83.10% # attempts to use FU when none available
system.switch_cpus_1.iq.fu_full::SimdSqrt            0      0.00%     83.10% # attempts to use FU when none available
system.switch_cpus_1.iq.fu_full::SimdFloatAdd        15673      0.07%     83.17% # attempts to use FU when none available
system.switch_cpus_1.iq.fu_full::SimdFloatAlu            0      0.00%     83.17% # attempts to use FU when none available
system.switch_cpus_1.iq.fu_full::SimdFloatCmp            0      0.00%     83.17% # attempts to use FU when none available
system.switch_cpus_1.iq.fu_full::SimdFloatCvt       443181      1.87%     85.04% # attempts to use FU when none available
system.switch_cpus_1.iq.fu_full::SimdFloatDiv            0      0.00%     85.04% # attempts to use FU when none available
system.switch_cpus_1.iq.fu_full::SimdFloatMisc            0      0.00%     85.04% # attempts to use FU when none available
system.switch_cpus_1.iq.fu_full::SimdFloatMult          235      0.00%     85.04% # attempts to use FU when none available
system.switch_cpus_1.iq.fu_full::SimdFloatMultAcc            0      0.00%     85.04% # attempts to use FU when none available
system.switch_cpus_1.iq.fu_full::SimdFloatSqrt            0      0.00%     85.04% # attempts to use FU when none available
system.switch_cpus_1.iq.fu_full::SimdReduceAdd            0      0.00%     85.04% # attempts to use FU when none available
system.switch_cpus_1.iq.fu_full::SimdReduceAlu            0      0.00%     85.04% # attempts to use FU when none available
system.switch_cpus_1.iq.fu_full::SimdReduceCmp            0      0.00%     85.04% # attempts to use FU when none available
system.switch_cpus_1.iq.fu_full::SimdFloatReduceAdd            0      0.00%     85.04% # attempts to use FU when none available
system.switch_cpus_1.iq.fu_full::SimdFloatReduceCmp            0      0.00%     85.04% # attempts to use FU when none available
system.switch_cpus_1.iq.fu_full::SimdAes            0      0.00%     85.04% # attempts to use FU when none available
system.switch_cpus_1.iq.fu_full::SimdAesMix            0      0.00%     85.04% # attempts to use FU when none available
system.switch_cpus_1.iq.fu_full::SimdSha1Hash            0      0.00%     85.04% # attempts to use FU when none available
system.switch_cpus_1.iq.fu_full::SimdSha1Hash2            0      0.00%     85.04% # attempts to use FU when none available
system.switch_cpus_1.iq.fu_full::SimdSha256Hash            0      0.00%     85.04% # attempts to use FU when none available
system.switch_cpus_1.iq.fu_full::SimdSha256Hash2            0      0.00%     85.04% # attempts to use FU when none available
system.switch_cpus_1.iq.fu_full::SimdShaSigma2            0      0.00%     85.04% # attempts to use FU when none available
system.switch_cpus_1.iq.fu_full::SimdShaSigma3            0      0.00%     85.04% # attempts to use FU when none available
system.switch_cpus_1.iq.fu_full::SimdPredAlu            0      0.00%     85.04% # attempts to use FU when none available
system.switch_cpus_1.iq.fu_full::MemRead      1877218      7.92%     92.96% # attempts to use FU when none available
system.switch_cpus_1.iq.fu_full::MemWrite      1177558      4.97%     97.93% # attempts to use FU when none available
system.switch_cpus_1.iq.fu_full::FloatMemRead       273359      1.15%     99.09% # attempts to use FU when none available
system.switch_cpus_1.iq.fu_full::FloatMemWrite       216056      0.91%    100.00% # attempts to use FU when none available
system.switch_cpus_1.iq.fu_full::IprAccess            0      0.00%    100.00% # attempts to use FU when none available
system.switch_cpus_1.iq.fu_full::InstPrefetch            0      0.00%    100.00% # attempts to use FU when none available
system.switch_cpus_1.iq.int_alu_accesses    774936369                       # Number of integer alu accesses
system.switch_cpus_1.iq.int_inst_queue_reads   1816073849                       # Number of integer instruction queue reads
system.switch_cpus_1.iq.int_inst_queue_wakeup_accesses    742508838                       # Number of integer instruction queue wakeup accesses
system.switch_cpus_1.iq.int_inst_queue_writes    926241497                       # Number of integer instruction queue writes
system.switch_cpus_1.iq.iqInstsAdded        860638184                       # Number of instructions added to the IQ (excludes non-spec)
system.switch_cpus_1.iq.iqInstsIssued       810067130                       # Number of instructions issued
system.switch_cpus_1.iq.iqNonSpecInstsAdded       326179                       # Number of non-speculative instructions added to the IQ
system.switch_cpus_1.iq.iqSquashedInstsExamined    134782543                       # Number of squashed instructions iterated over during squash; mainly for profiling
system.switch_cpus_1.iq.iqSquashedInstsIssued      3808364                       # Number of squashed instructions issued
system.switch_cpus_1.iq.iqSquashedNonSpecRemoved       325732                       # Number of squashed non-spec instructions that were removed
system.switch_cpus_1.iq.iqSquashedOperandsExamined    192984125                       # Number of squashed operands that are examined and possibly removed from graph
system.switch_cpus_1.iq.issued_per_cycle::samples    279570407                       # Number of insts issued each cycle
system.switch_cpus_1.iq.issued_per_cycle::mean     2.897542                       # Number of insts issued each cycle
system.switch_cpus_1.iq.issued_per_cycle::stdev     2.995089                       # Number of insts issued each cycle
system.switch_cpus_1.iq.issued_per_cycle::underflows            0      0.00%      0.00% # Number of insts issued each cycle
system.switch_cpus_1.iq.issued_per_cycle::0    121530888     43.47%     43.47% # Number of insts issued each cycle
system.switch_cpus_1.iq.issued_per_cycle::1     10430555      3.73%     47.20% # Number of insts issued each cycle
system.switch_cpus_1.iq.issued_per_cycle::2     13530075      4.84%     52.04% # Number of insts issued each cycle
system.switch_cpus_1.iq.issued_per_cycle::3     14702400      5.26%     57.30% # Number of insts issued each cycle
system.switch_cpus_1.iq.issued_per_cycle::4     18090111      6.47%     63.77% # Number of insts issued each cycle
system.switch_cpus_1.iq.issued_per_cycle::5     23873610      8.54%     72.31% # Number of insts issued each cycle
system.switch_cpus_1.iq.issued_per_cycle::6     27977716     10.01%     82.32% # Number of insts issued each cycle
system.switch_cpus_1.iq.issued_per_cycle::7     26605981      9.52%     91.83% # Number of insts issued each cycle
system.switch_cpus_1.iq.issued_per_cycle::8     22829071      8.17%    100.00% # Number of insts issued each cycle
system.switch_cpus_1.iq.issued_per_cycle::overflows            0      0.00%    100.00% # Number of insts issued each cycle
system.switch_cpus_1.iq.issued_per_cycle::min_value            0                       # Number of insts issued each cycle
system.switch_cpus_1.iq.issued_per_cycle::max_value            8                       # Number of insts issued each cycle
system.switch_cpus_1.iq.issued_per_cycle::total    279570407                       # Number of insts issued each cycle
system.switch_cpus_1.iq.rate                 2.895989                       # Inst issue rate
system.switch_cpus_1.iq.vec_alu_accesses            0                       # Number of vector alu accesses
system.switch_cpus_1.iq.vec_inst_queue_reads            0                       # Number of vector instruction queue reads
system.switch_cpus_1.iq.vec_inst_queue_wakeup_accesses            0                       # Number of vector instruction queue wakeup accesses
system.switch_cpus_1.iq.vec_inst_queue_writes            0                       # Number of vector instruction queue writes
system.switch_cpus_1.itb.rdAccesses                 0                       # TLB accesses on read requests
system.switch_cpus_1.itb.rdMisses                   0                       # TLB misses on read requests
system.switch_cpus_1.itb.wrAccesses          67513739                       # TLB accesses on write requests
system.switch_cpus_1.itb.wrMisses                3085                       # TLB misses on write requests
system.switch_cpus_1.memDep0.conflictingLoads      4184302                       # Number of conflicting loads.
system.switch_cpus_1.memDep0.conflictingStores      2645330                       # Number of conflicting stores.
system.switch_cpus_1.memDep0.insertedLoads    114911400                       # Number of loads inserted to the mem dependence unit.
system.switch_cpus_1.memDep0.insertedStores     65821352                       # Number of stores inserted to the mem dependence unit.
system.switch_cpus_1.misc_regfile_reads     333165944                       # number of misc regfile reads
system.switch_cpus_1.misc_regfile_writes           54                       # number of misc regfile writes
system.switch_cpus_1.numCycles              279720388                       # number of cpu cycles simulated
system.switch_cpus_1.numWorkItemsCompleted            0                       # number of work items this cpu completed
system.switch_cpus_1.numWorkItemsStarted            0                       # number of work items this cpu started
system.switch_cpus_1.rename.BlockCycles      65105753                       # Number of cycles rename is blocking
system.switch_cpus_1.rename.CommittedMaps    841196249                       # Number of HB maps that are committed
system.switch_cpus_1.rename.IQFullEvents      8030240                       # Number of times rename has blocked due to IQ full
system.switch_cpus_1.rename.IdleCycles       28323432                       # Number of cycles rename is idle
system.switch_cpus_1.rename.LQFullEvents     24836967                       # Number of times rename has blocked due to LQ full
system.switch_cpus_1.rename.ROBFullEvents      2904718                       # Number of times rename has blocked due to ROB full
system.switch_cpus_1.rename.RenameLookups   2229522912                       # Number of register rename lookups that rename has made
system.switch_cpus_1.rename.RenamedInsts    905098200                       # Number of instructions processed by rename
system.switch_cpus_1.rename.RenamedOperands   1027698346                       # Number of destination operands rename has renamed
system.switch_cpus_1.rename.RunCycles       124845939                       # Number of cycles rename is running
system.switch_cpus_1.rename.SQFullEvents     19627053                       # Number of times rename has blocked due to SQ full
system.switch_cpus_1.rename.SquashCycles      3792319                       # Number of cycles rename is squashing
system.switch_cpus_1.rename.UnblockCycles     57493006                       # Number of cycles rename is unblocking
system.switch_cpus_1.rename.UndoneMaps      186501983                       # Number of HB maps that are undone due to squashing
system.switch_cpus_1.rename.fp_rename_lookups     82589099                       # Number of floating rename lookups
system.switch_cpus_1.rename.int_rename_lookups   1305813592                       # Number of integer rename lookups
system.switch_cpus_1.rename.serializeStallCycles         9951                       # count of cycles rename stalled for serializing inst
system.switch_cpus_1.rename.serializingInsts          500                       # count of serializing insts renamed
system.switch_cpus_1.rename.skidInsts        50097183                       # count of insts added to the skid buffer
system.switch_cpus_1.rename.tempSerializingInsts          502                       # count of temporary serializing insts renamed
system.switch_cpus_1.rob.rob_reads         1061209458                       # The number of ROB reads
system.switch_cpus_1.rob.rob_writes        1741589667                       # The number of ROB writes
system.switch_cpus_1.timesIdled                  4659                       # Number of times that the entire CPU went into an idle state and unscheduled itself
system.tol2bus.snoop_filter.hit_multi_requests           60                       # Number of requests hitting in the snoop filter with multiple (>1) holders of the requested data.
system.tol2bus.snoop_filter.hit_multi_snoops            2                       # Number of snoops hitting in the snoop filter with multiple (>1) holders of the requested data.
system.tol2bus.snoop_filter.hit_single_requests      1492415                       # Number of requests hitting in the snoop filter with a single holder of the requested data.
system.tol2bus.snoop_filter.hit_single_snoops       162624                       # Number of snoops hitting in the snoop filter with a single holder of the requested data.
system.tol2bus.snoop_filter.tot_requests      2983130                       # Total number of requests made to the snoop filter.
system.tol2bus.snoop_filter.tot_snoops         162626                       # Total number of snoops made to the snoop filter.
system.tol3bus.snoop_filter.hit_multi_requests            0                       # Number of requests hitting in the snoop filter with multiple (>1) holders of the requested data.
system.tol3bus.snoop_filter.hit_multi_snoops            0                       # Number of snoops hitting in the snoop filter with multiple (>1) holders of the requested data.
system.tol3bus.snoop_filter.hit_single_requests      1003426                       # Number of requests hitting in the snoop filter with a single holder of the requested data.
system.tol3bus.snoop_filter.hit_single_snoops       826589                       # Number of snoops hitting in the snoop filter with a single holder of the requested data.
system.tol3bus.snoop_filter.tot_requests      2006936                       # Total number of requests made to the snoop filter.
system.tol3bus.snoop_filter.tot_snoops         826589                       # Total number of snoops made to the snoop filter.
system.membus.trans_dist::ReadResp             816191                       # Transaction distribution
system.membus.trans_dist::WritebackDirty       189005                       # Transaction distribution
system.membus.trans_dist::CleanEvict           750936                       # Transaction distribution
system.membus.trans_dist::ReadExReq            125285                       # Transaction distribution
system.membus.trans_dist::ReadExResp           125285                       # Transaction distribution
system.membus.trans_dist::ReadSharedReq        816191                       # Transaction distribution
system.membus.pkt_count_system.l3.mem_side::system.mem_ctrls.port      2822893                       # Packet count per connected master and slave (bytes)
system.membus.pkt_count_system.l3.mem_side::total      2822893                       # Packet count per connected master and slave (bytes)
system.membus.pkt_count::total                2822893                       # Packet count per connected master and slave (bytes)
system.membus.pkt_size_system.l3.mem_side::system.mem_ctrls.port     72350784                       # Cumulative packet size per connected master and slave (bytes)
system.membus.pkt_size_system.l3.mem_side::total     72350784                       # Cumulative packet size per connected master and slave (bytes)
system.membus.pkt_size::total                72350784                       # Cumulative packet size per connected master and slave (bytes)
system.membus.snoops                                0                       # Total snoops (count)
system.membus.snoopTraffic                          0                       # Total snoop traffic (bytes)
system.membus.snoop_fanout::samples            941476                       # Request fanout histogram
system.membus.snoop_fanout::mean                    0                       # Request fanout histogram
system.membus.snoop_fanout::stdev                   0                       # Request fanout histogram
system.membus.snoop_fanout::underflows              0      0.00%      0.00% # Request fanout histogram
system.membus.snoop_fanout::0                  941476    100.00%    100.00% # Request fanout histogram
system.membus.snoop_fanout::1                       0      0.00%    100.00% # Request fanout histogram
system.membus.snoop_fanout::overflows               0      0.00%    100.00% # Request fanout histogram
system.membus.snoop_fanout::min_value               0                       # Request fanout histogram
system.membus.snoop_fanout::max_value               0                       # Request fanout histogram
system.membus.snoop_fanout::total              941476                       # Request fanout histogram
system.membus.reqLayer2.occupancy          2869988500                       # Layer occupancy (ticks)
system.membus.reqLayer2.utilization               2.1                       # Layer utilization (%)
system.membus.respLayer1.occupancy         4984632500                       # Layer occupancy (ticks)
system.membus.respLayer1.utilization              3.6                       # Layer utilization (%)
system.membus.power_state.pwrStateResidencyTicks::UNDEFINED 1366598542000                       # Cumulative time (in ticks) in various power states
system.switch_cpus_1.dtb.walker.power_state.pwrStateResidencyTicks::UNDEFINED 1366598542000                       # Cumulative time (in ticks) in various power states
system.switch_cpus_1.itb.walker.power_state.pwrStateResidencyTicks::UNDEFINED 1366598542000                       # Cumulative time (in ticks) in various power states
system.switch_cpus_1.power_state.pwrStateResidencyTicks::OFF 1366598542000                       # Cumulative time (in ticks) in various power states
system.switch_cpus.dtb.walker.power_state.pwrStateResidencyTicks::UNDEFINED 1366598542000                       # Cumulative time (in ticks) in various power states
system.switch_cpus.itb.walker.power_state.pwrStateResidencyTicks::UNDEFINED 1366598542000                       # Cumulative time (in ticks) in various power states
system.switch_cpus.power_state.numTransitions            1                       # Number of power state transitions
system.switch_cpus.power_state.pwrStateResidencyTicks::OFF 1366598542000                       # Cumulative time (in ticks) in various power states
system.tol2bus.trans_dist::ReadResp           1326644                       # Transaction distribution
system.tol2bus.trans_dist::WritebackDirty       507075                       # Transaction distribution
system.tol2bus.trans_dist::WritebackClean       388288                       # Transaction distribution
system.tol2bus.trans_dist::CleanEvict         2428248                       # Transaction distribution
system.tol2bus.trans_dist::UpgradeReq            1742                       # Transaction distribution
system.tol2bus.trans_dist::UpgradeResp           1742                       # Transaction distribution
system.tol2bus.trans_dist::ReadExReq           164057                       # Transaction distribution
system.tol2bus.trans_dist::ReadExResp          164057                       # Transaction distribution
system.tol2bus.trans_dist::ReadCleanReq        388302                       # Transaction distribution
system.tol2bus.trans_dist::ReadSharedReq       938342                       # Transaction distribution
system.tol2bus.pkt_count_system.cpu.icache.mem_side::system.l2.cpu_side      1164875                       # Packet count per connected master and slave (bytes)
system.tol2bus.pkt_count_system.cpu.dcache.mem_side::system.l2.cpu_side      3310681                       # Packet count per connected master and slave (bytes)
system.tol2bus.pkt_count::total               4475556                       # Packet count per connected master and slave (bytes)
system.tol2bus.pkt_size_system.cpu.icache.mem_side::system.l2.cpu_side     49700672                       # Cumulative packet size per connected master and slave (bytes)
system.tol2bus.pkt_size_system.cpu.dcache.mem_side::system.l2.cpu_side     88116352                       # Cumulative packet size per connected master and slave (bytes)
system.tol2bus.pkt_size::total              137817024                       # Cumulative packet size per connected master and slave (bytes)
system.tol2bus.snoops                         1832941                       # Total snoops (count)
system.tol2bus.snoopTraffic                  14891072                       # Total snoop traffic (bytes)
system.tol2bus.snoop_fanout::samples          3325367                       # Request fanout histogram
system.tol2bus.snoop_fanout::mean            0.048923                       # Request fanout histogram
system.tol2bus.snoop_fanout::stdev           0.215711                       # Request fanout histogram
system.tol2bus.snoop_fanout::underflows             0      0.00%      0.00% # Request fanout histogram
system.tol2bus.snoop_fanout::0                3162681     95.11%     95.11% # Request fanout histogram
system.tol2bus.snoop_fanout::1                 162684      4.89%    100.00% # Request fanout histogram
system.tol2bus.snoop_fanout::2                      2      0.00%    100.00% # Request fanout histogram
system.tol2bus.snoop_fanout::3                      0      0.00%    100.00% # Request fanout histogram
system.tol2bus.snoop_fanout::4                      0      0.00%    100.00% # Request fanout histogram
system.tol2bus.snoop_fanout::overflows              0      0.00%    100.00% # Request fanout histogram
system.tol2bus.snoop_fanout::min_value              0                       # Request fanout histogram
system.tol2bus.snoop_fanout::max_value              2                       # Request fanout histogram
system.tol2bus.snoop_fanout::total            3325367                       # Request fanout histogram
system.tol2bus.reqLayer0.occupancy         2154272000                       # Layer occupancy (ticks)
system.tol2bus.reqLayer0.utilization              1.5                       # Layer utilization (%)
system.tol2bus.respLayer1.occupancy        1654474490                       # Layer occupancy (ticks)
system.tol2bus.respLayer1.utilization             1.2                       # Layer utilization (%)
system.tol2bus.respLayer0.occupancy         582458489                       # Layer occupancy (ticks)
system.tol2bus.respLayer0.utilization             0.4                       # Layer utilization (%)
system.tol2bus.power_state.pwrStateResidencyTicks::UNDEFINED 1366598542000                       # Cumulative time (in ticks) in various power states
system.voltage_domain.voltage                       1                       # Voltage in Volts
system.clk_domain.clock                          1000                       # Clock period in ticks
system.l2.demand_hits::.switch_cpus_1.inst       385812                       # number of demand (read+write) hits
system.l2.demand_hits::.switch_cpus_1.data       101359                       # number of demand (read+write) hits
system.l2.demand_hits::total                   487171                       # number of demand (read+write) hits
system.l2.overall_hits::.switch_cpus_1.inst       385812                       # number of overall hits
system.l2.overall_hits::.switch_cpus_1.data       101359                       # number of overall hits
system.l2.overall_hits::total                  487171                       # number of overall hits
system.l2.demand_misses::.switch_cpus_1.inst         2473                       # number of demand (read+write) misses
system.l2.demand_misses::.switch_cpus_1.data      1001040                       # number of demand (read+write) misses
system.l2.demand_misses::total                1003513                       # number of demand (read+write) misses
system.l2.overall_misses::.switch_cpus_1.inst         2473                       # number of overall misses
system.l2.overall_misses::.switch_cpus_1.data      1001040                       # number of overall misses
system.l2.overall_misses::total               1003513                       # number of overall misses
system.l2.demand_miss_latency::.switch_cpus_1.inst    210042500                       # number of demand (read+write) miss cycles
system.l2.demand_miss_latency::.switch_cpus_1.data  86411226000                       # number of demand (read+write) miss cycles
system.l2.demand_miss_latency::total      86621268500                       # number of demand (read+write) miss cycles
system.l2.overall_miss_latency::.switch_cpus_1.inst    210042500                       # number of overall miss cycles
system.l2.overall_miss_latency::.switch_cpus_1.data  86411226000                       # number of overall miss cycles
system.l2.overall_miss_latency::total     86621268500                       # number of overall miss cycles
system.l2.demand_accesses::.switch_cpus_1.inst       388285                       # number of demand (read+write) accesses
system.l2.demand_accesses::.switch_cpus_1.data      1102399                       # number of demand (read+write) accesses
system.l2.demand_accesses::total              1490684                       # number of demand (read+write) accesses
system.l2.overall_accesses::.switch_cpus_1.inst       388285                       # number of overall (read+write) accesses
system.l2.overall_accesses::.switch_cpus_1.data      1102399                       # number of overall (read+write) accesses
system.l2.overall_accesses::total             1490684                       # number of overall (read+write) accesses
system.l2.demand_miss_rate::.switch_cpus_1.inst     0.006369                       # miss rate for demand accesses
[...]
system.cpu.dcache.demand_avg_miss_latency::total 62551.156474                       # average overall miss latency
system.cpu.dcache.overall_avg_miss_latency::.switch_cpus.data 36982.517607                       # average overall miss latency
system.cpu.dcache.overall_avg_miss_latency::.switch_cpus_1.data 65991.932945                       # average overall miss latency
system.cpu.dcache.overall_avg_miss_latency::total 62546.014119                       # average overall miss latency
system.cpu.dcache.blocked_cycles::no_mshrs     10867173                       # number of cycles access was blocked
system.cpu.dcache.blocked_cycles::no_targets         5394                       # number of cycles access was blocked
system.cpu.dcache.blocked::no_mshrs            240571                       # number of cycles access was blocked
system.cpu.dcache.blocked::no_targets              39                       # number of cycles access was blocked
system.cpu.dcache.avg_blocked_cycles::no_mshrs    45.172415                       # average number of cycles each access was blocked
system.cpu.dcache.avg_blocked_cycles::no_targets   138.307692                       # average number of cycles each access was blocked
system.cpu.dcache.writebacks::.writebacks       613577                       # number of writebacks
system.cpu.dcache.writebacks::total            613577                       # number of writebacks
system.cpu.dcache.demand_mshr_hits::.switch_cpus_1.data      5301350                       # number of demand (read+write) MSHR hits
system.cpu.dcache.demand_mshr_hits::total      5301350                       # number of demand (read+write) MSHR hits
system.cpu.dcache.overall_mshr_hits::.switch_cpus_1.data      5301350                       # number of overall MSHR hits
system.cpu.dcache.overall_mshr_hits::total      5301350                       # number of overall MSHR hits
system.cpu.dcache.demand_mshr_misses::.switch_cpus.data        28114                       # number of demand (read+write) MSHR misses
system.cpu.dcache.demand_mshr_misses::.switch_cpus_1.data      1103849                       # number of demand (read+write) MSHR misses
system.cpu.dcache.demand_mshr_misses::total      1131963                       # number of demand (read+write) MSHR misses
system.cpu.dcache.overall_mshr_misses::.switch_cpus.data        28114                       # number of overall MSHR misses
system.cpu.dcache.overall_mshr_misses::.switch_cpus_1.data      1104128                       # number of overall MSHR misses
system.cpu.dcache.overall_mshr_misses::total      1132242                       # number of overall MSHR misses
system.cpu.dcache.demand_mshr_miss_latency::.switch_cpus.data   1025669500                       # number of demand (read+write) MSHR miss cycles
system.cpu.dcache.demand_mshr_miss_latency::.switch_cpus_1.data  88095201918                       # number of demand (read+write) MSHR miss cycles
system.cpu.dcache.demand_mshr_miss_latency::total  89120871418                       # number of demand (read+write) MSHR miss cycles
system.cpu.dcache.overall_mshr_miss_latency::.switch_cpus.data   1025669500                       # number of overall MSHR miss cycles
system.cpu.dcache.overall_mshr_miss_latency::.switch_cpus_1.data  88115761418                       # number of overall MSHR miss cycles
system.cpu.dcache.overall_mshr_miss_latency::total  89141430918                       # number of overall MSHR miss cycles
system.cpu.dcache.demand_mshr_miss_rate::.switch_cpus.data     0.000660                       # mshr miss rate for demand accesses
system.cpu.dcache.demand_mshr_miss_rate::.switch_cpus_1.data     0.007465                       # mshr miss rate for demand accesses
system.cpu.dcache.demand_mshr_miss_rate::total     0.001840                       # mshr miss rate for demand accesses
system.cpu.dcache.overall_mshr_miss_rate::.switch_cpus.data     0.000660                       # mshr miss rate for overall accesses
system.cpu.dcache.overall_mshr_miss_rate::.switch_cpus_1.data     0.007467                       # mshr miss rate for overall accesses
system.cpu.dcache.overall_mshr_miss_rate::total     0.001840                       # mshr miss rate for overall accesses
system.cpu.dcache.demand_avg_mshr_miss_latency::.switch_cpus.data 36482.517607                       # average overall mshr miss latency
system.cpu.dcache.demand_avg_mshr_miss_latency::.switch_cpus_1.data 79807.294220                       # average overall mshr miss latency
system.cpu.dcache.demand_avg_mshr_miss_latency::total 78731.258370                       # average overall mshr miss latency
system.cpu.dcache.overall_avg_mshr_miss_latency::.switch_cpus.data 36482.517607                       # average overall mshr miss latency
system.cpu.dcache.overall_avg_mshr_miss_latency::.switch_cpus_1.data 79805.748444                       # average overall mshr miss latency
system.cpu.dcache.overall_avg_mshr_miss_latency::total 78730.016126                       # average overall mshr miss latency
system.cpu.dcache.replacements                1471427                       # number of replacements
system.cpu.dcache.ReadReq_hits::.cpu.data    237889541                       # number of ReadReq hits
system.cpu.dcache.ReadReq_hits::.switch_cpus.data     23800040                       # number of ReadReq hits
system.cpu.dcache.ReadReq_hits::.switch_cpus_1.data     88283207                       # number of ReadReq hits
system.cpu.dcache.ReadReq_hits::total       349972788                       # number of ReadReq hits
system.cpu.dcache.ReadReq_misses::.cpu.data       189743                       # number of ReadReq misses
system.cpu.dcache.ReadReq_misses::.switch_cpus.data        15894                       # number of ReadReq misses
system.cpu.dcache.ReadReq_misses::.switch_cpus_1.data      6235387                       # number of ReadReq misses
system.cpu.dcache.ReadReq_misses::total       6441024                       # number of ReadReq misses
system.cpu.dcache.ReadReq_miss_latency::.switch_cpus.data    134740500                       # number of ReadReq miss cycles
system.cpu.dcache.ReadReq_miss_latency::.switch_cpus_1.data 409974523000                       # number of ReadReq miss cycles
system.cpu.dcache.ReadReq_miss_latency::total 410109263500                       # number of ReadReq miss cycles
system.cpu.dcache.ReadReq_accesses::.cpu.data    238079284                       # number of ReadReq accesses(hits+misses)
system.cpu.dcache.ReadReq_accesses::.switch_cpus.data     23815934                       # number of ReadReq accesses(hits+misses)
system.cpu.dcache.ReadReq_accesses::.switch_cpus_1.data     94518594                       # number of ReadReq accesses(hits+misses)
system.cpu.dcache.ReadReq_accesses::total    356413812                       # number of ReadReq accesses(hits+misses)
system.cpu.dcache.ReadReq_miss_rate::.cpu.data     0.000797                       # miss rate for ReadReq accesses
system.cpu.dcache.ReadReq_miss_rate::.switch_cpus.data     0.000667                       # miss rate for ReadReq accesses
system.cpu.dcache.ReadReq_miss_rate::.switch_cpus_1.data     0.065970                       # miss rate for ReadReq accesses
system.cpu.dcache.ReadReq_miss_rate::total     0.018072                       # miss rate for ReadReq accesses
system.cpu.dcache.ReadReq_avg_miss_latency::.switch_cpus.data  8477.444319                       # average ReadReq miss latency
system.cpu.dcache.ReadReq_avg_miss_latency::.switch_cpus_1.data 65749.651625                       # average ReadReq miss latency
system.cpu.dcache.ReadReq_avg_miss_latency::total 63671.438501                       # average ReadReq miss latency
system.cpu.dcache.ReadReq_mshr_hits::.switch_cpus_1.data      5297324                       # number of ReadReq MSHR hits
system.cpu.dcache.ReadReq_mshr_hits::total      5297324                       # number of ReadReq MSHR hits
system.cpu.dcache.ReadReq_mshr_misses::.switch_cpus.data        15894                       # number of ReadReq MSHR misses
system.cpu.dcache.ReadReq_mshr_misses::.switch_cpus_1.data       938063                       # number of ReadReq MSHR misses
system.cpu.dcache.ReadReq_mshr_misses::total       953957                       # number of ReadReq MSHR misses
system.cpu.dcache.ReadReq_mshr_miss_latency::.switch_cpus.data    126793500                       # number of ReadReq MSHR miss cycles
system.cpu.dcache.ReadReq_mshr_miss_latency::.switch_cpus_1.data  75710405500                       # number of ReadReq MSHR miss cycles
system.cpu.dcache.ReadReq_mshr_miss_latency::total  75837199000                       # number of ReadReq MSHR miss cycles
system.cpu.dcache.ReadReq_mshr_miss_rate::.switch_cpus.data     0.000667                       # mshr miss rate for ReadReq accesses
system.cpu.dcache.ReadReq_mshr_miss_rate::.switch_cpus_1.data     0.009925                       # mshr miss rate for ReadReq accesses
system.cpu.dcache.ReadReq_mshr_miss_rate::total     0.002677                       # mshr miss rate for ReadReq accesses
system.cpu.dcache.ReadReq_avg_mshr_miss_latency::.switch_cpus.data  7977.444319                       # average ReadReq mshr miss latency
system.cpu.dcache.ReadReq_avg_mshr_miss_latency::.switch_cpus_1.data 80709.297243                       # average ReadReq mshr miss latency
system.cpu.dcache.ReadReq_avg_mshr_miss_latency::total 79497.502508                       # average ReadReq mshr miss latency
system.cpu.dcache.WriteReq_hits::.cpu.data    186544031                       # number of WriteReq hits
system.cpu.dcache.WriteReq_hits::.switch_cpus.data     18750996                       # number of WriteReq hits
system.cpu.dcache.WriteReq_hits::.switch_cpus_1.data     53174065                       # number of WriteReq hits
system.cpu.dcache.WriteReq_hits::total      258469092                       # number of WriteReq hits
system.cpu.dcache.WriteReq_misses::.cpu.data       151686                       # number of WriteReq misses
system.cpu.dcache.WriteReq_misses::.switch_cpus.data        12220                       # number of WriteReq misses
system.cpu.dcache.WriteReq_misses::.switch_cpus_1.data       169812                       # number of WriteReq misses
system.cpu.dcache.WriteReq_misses::total       333718                       # number of WriteReq misses
system.cpu.dcache.WriteReq_miss_latency::.switch_cpus.data    904986000                       # number of WriteReq miss cycles
system.cpu.dcache.WriteReq_miss_latency::.switch_cpus_1.data  12753697413                       # number of WriteReq miss cycles
system.cpu.dcache.WriteReq_miss_latency::total  13658683413                       # number of WriteReq miss cycles
system.cpu.dcache.WriteReq_accesses::.cpu.data    186695717                       # number of WriteReq accesses(hits+misses)
system.cpu.dcache.WriteReq_accesses::.switch_cpus.data     18763216                       # number of WriteReq accesses(hits+misses)
system.cpu.dcache.WriteReq_accesses::.switch_cpus_1.data     53343877                       # number of WriteReq accesses(hits+misses)
system.cpu.dcache.WriteReq_accesses::total    258802810                       # number of WriteReq accesses(hits+misses)
system.cpu.dcache.WriteReq_miss_rate::.cpu.data     0.000812                       # miss rate for WriteReq accesses
system.cpu.dcache.WriteReq_miss_rate::.switch_cpus.data     0.000651                       # miss rate for WriteReq accesses
system.cpu.dcache.WriteReq_miss_rate::.switch_cpus_1.data     0.003183                       # miss rate for WriteReq accesses
system.cpu.dcache.WriteReq_miss_rate::total     0.001289                       # miss rate for WriteReq accesses
system.cpu.dcache.WriteReq_avg_miss_latency::.switch_cpus.data 74057.774141                       # average WriteReq miss latency
system.cpu.dcache.WriteReq_avg_miss_latency::.switch_cpus_1.data 75104.806568                       # average WriteReq miss latency
system.cpu.dcache.WriteReq_avg_miss_latency::total 40928.818383                       # average WriteReq miss latency
system.cpu.dcache.WriteReq_mshr_hits::.switch_cpus_1.data         4026                       # number of WriteReq MSHR hits
system.cpu.dcache.WriteReq_mshr_hits::total         4026                       # number of WriteReq MSHR hits
system.cpu.dcache.WriteReq_mshr_misses::.switch_cpus.data        12220                       # number of WriteReq MSHR misses
system.cpu.dcache.WriteReq_mshr_misses::.switch_cpus_1.data       165786                       # number of WriteReq MSHR misses
system.cpu.dcache.WriteReq_mshr_misses::total       178006                       # number of WriteReq MSHR misses
system.cpu.dcache.WriteReq_mshr_miss_latency::.switch_cpus.data    898876000                       # number of WriteReq MSHR miss cycles
system.cpu.dcache.WriteReq_mshr_miss_latency::.switch_cpus_1.data  12384796418                       # number of WriteReq MSHR miss cycles
system.cpu.dcache.WriteReq_mshr_miss_latency::total  13283672418                       # number of WriteReq MSHR miss cycles
system.cpu.dcache.WriteReq_mshr_miss_rate::.switch_cpus.data     0.000651                       # mshr miss rate for WriteReq accesses
system.cpu.dcache.WriteReq_mshr_miss_rate::.switch_cpus_1.data     0.003108                       # mshr miss rate for WriteReq accesses
system.cpu.dcache.WriteReq_mshr_miss_rate::total     0.000688                       # mshr miss rate for WriteReq accesses
system.cpu.dcache.WriteReq_avg_mshr_miss_latency::.switch_cpus.data 73557.774141                       # average WriteReq mshr miss latency
system.cpu.dcache.WriteReq_avg_mshr_miss_latency::.switch_cpus_1.data 74703.511865                       # average WriteReq mshr miss latency
system.cpu.dcache.WriteReq_avg_mshr_miss_latency::total 74624.857690                       # average WriteReq mshr miss latency
system.cpu.dcache.SoftPFReq_hits::.switch_cpus_1.data         6089                       # number of SoftPFReq hits
system.cpu.dcache.SoftPFReq_hits::total          6089                       # number of SoftPFReq hits
system.cpu.dcache.SoftPFReq_misses::.switch_cpus_1.data          557                       # number of SoftPFReq misses
system.cpu.dcache.SoftPFReq_misses::total          557                       # number of SoftPFReq misses
system.cpu.dcache.SoftPFReq_accesses::.switch_cpus_1.data         6646                       # number of SoftPFReq accesses(hits+misses)
system.cpu.dcache.SoftPFReq_accesses::total         6646                       # number of SoftPFReq accesses(hits+misses)
system.cpu.dcache.SoftPFReq_miss_rate::.switch_cpus_1.data     0.083810                       # miss rate for SoftPFReq accesses
system.cpu.dcache.SoftPFReq_miss_rate::total     0.083810                       # miss rate for SoftPFReq accesses
system.cpu.dcache.SoftPFReq_mshr_misses::.switch_cpus_1.data          279                       # number of SoftPFReq MSHR misses
system.cpu.dcache.SoftPFReq_mshr_misses::total          279                       # number of SoftPFReq MSHR misses
system.cpu.dcache.SoftPFReq_mshr_miss_latency::.switch_cpus_1.data     20559500                       # number of SoftPFReq MSHR miss cycles
system.cpu.dcache.SoftPFReq_mshr_miss_latency::total     20559500                       # number of SoftPFReq MSHR miss cycles
system.cpu.dcache.SoftPFReq_mshr_miss_rate::.switch_cpus_1.data     0.041980                       # mshr miss rate for SoftPFReq accesses
system.cpu.dcache.SoftPFReq_mshr_miss_rate::total     0.041980                       # mshr miss rate for SoftPFReq accesses
system.cpu.dcache.SoftPFReq_avg_mshr_miss_latency::.switch_cpus_1.data 73689.964158                       # average SoftPFReq mshr miss latency
system.cpu.dcache.SoftPFReq_avg_mshr_miss_latency::total 73689.964158                       # average SoftPFReq mshr miss latency
system.cpu.dcache.power_state.pwrStateResidencyTicks::UNDEFINED 1366598542000                       # Cumulative time (in ticks) in various power states
system.cpu.dcache.tags.tagsinuse           511.995380                       # Cycle average of tags in use
system.cpu.dcache.tags.total_refs           609922113                       # Total number of references to valid blocks.
system.cpu.dcache.tags.sampled_refs           1471939                       # Sample count of references to valid blocks.
system.cpu.dcache.tags.avg_refs            414.366433                       # Average number of references to valid blocks.
system.cpu.dcache.tags.warmup_cycle              1500                       # Cycle when the warmup percentage was hit.
system.cpu.dcache.tags.occ_blocks::.cpu.data   435.580259                       # Average occupied blocks per requestor
system.cpu.dcache.tags.occ_blocks::.switch_cpus.data    27.562943                       # Average occupied blocks per requestor
system.cpu.dcache.tags.occ_blocks::.switch_cpus_1.data    48.852179                       # Average occupied blocks per requestor
system.cpu.dcache.tags.occ_percent::.cpu.data     0.850743                       # Average percentage of cache occupancy
system.cpu.dcache.tags.occ_percent::.switch_cpus.data     0.053834                       # Average percentage of cache occupancy
system.cpu.dcache.tags.occ_percent::.switch_cpus_1.data     0.095414                       # Average percentage of cache occupancy
system.cpu.dcache.tags.occ_percent::total     0.999991                       # Average percentage of cache occupancy
system.cpu.dcache.tags.occ_task_id_blocks::1024          512                       # Occupied blocks per task id
system.cpu.dcache.tags.age_task_id_blocks_1024::0           15                       # Occupied blocks per task id
system.cpu.dcache.tags.age_task_id_blocks_1024::1          136                       # Occupied blocks per task id
system.cpu.dcache.tags.age_task_id_blocks_1024::2          162                       # Occupied blocks per task id
system.cpu.dcache.tags.age_task_id_blocks_1024::3          198                       # Occupied blocks per task id
system.cpu.dcache.tags.age_task_id_blocks_1024::4            1                       # Occupied blocks per task id
system.cpu.dcache.tags.occ_task_id_percent::1024            1                       # Percentage of cache occupancy per task id
system.cpu.dcache.tags.tag_accesses        2462365011                       # Number of tag accesses
system.cpu.dcache.tags.data_accesses       2462365011                       # Number of data accesses
system.cpu.dcache.tags.cache_friendly               0                       # Number of cache friendly accesses
system.cpu.dcache.tags.cache_averse         609922113                       # Number of cache averse accesses
system.cpu.dcache.tags.cache_friendly_victims            0                       # Number of cache friendly victims
system.cpu.dcache.tags.cache_averse_victims      1471939                       # Number of cache averse victims
system.cpu.dcache.tags.OPT_hits                     0                       # Number of OPT hits
system.cpu.dcache.tags.OPT_misses                   0                       # Number of OPT misses
system.cpu.dcache.tags.OPT_nan              615223268                       # Number of OPT nan
system.cpu.dcache.tags.power_state.pwrStateResidencyTicks::UNDEFINED 1366598542000                       # Cumulative time (in ticks) in various power states
system.cpu.power_state.numTransitions               2                       # Number of power state transitions
system.cpu.power_state.pwrStateResidencyTicks::ON 1135600018000                       # Cumulative time (in ticks) in various power states
system.cpu.power_state.pwrStateResidencyTicks::OFF 230998524000                       # Cumulative time (in ticks) in various power states

---------- End Simulation Statistics   ----------
