
---------- Begin Simulation Statistics ----------
final_tick                               4984707192000                       # Number of ticks from beginning of simulation (restored from checkpoints and never reset)
host_inst_rate                                 139123                       # Simulator instruction rate (inst/s)
host_mem_usage                                 746012                       # Number of bytes of host memory used
host_op_rate                                   248424                       # Simulator op (including micro ops) rate (op/s)
host_seconds                                 15094.55                       # Real time elapsed on the host
host_tick_rate                              213653139                       # Simulator tick rate (ticks/s)
sim_freq                                 1000000000000                       # Frequency of simulated ticks
sim_insts                                  2100000002                       # Number of instructions simulated
sim_ops                                    3749847930                       # Number of ops (including micro ops) simulated
sim_seconds                                  3.224997                       # Number of seconds simulated
sim_ticks                                3224996988750                       # Number of ticks simulated
system.cpu.committedInsts                           0                       # Number of instructions committed
system.cpu.committedOps                             0                       # Number of ops (including micro ops) committed
system.cpu.dtb.rdAccesses                           0                       # TLB accesses on read requests
system.cpu.dtb.rdMisses                             0                       # TLB misses on read requests
system.cpu.dtb.wrAccesses                           0                       # TLB accesses on write requests
system.cpu.dtb.wrMisses                             0                       # TLB misses on write requests
system.cpu.idle_fraction                            0                       # Percentage of idle cycles
system.cpu.itb.rdAccesses                           0                       # TLB accesses on read requests
system.cpu.itb.rdMisses                             0                       # TLB misses on read requests
system.cpu.itb.wrAccesses                           0                       # TLB accesses on write requests
system.cpu.itb.wrMisses                             0                       # TLB misses on write requests
system.cpu.not_idle_fraction                        1                       # Percentage of non-idle cycles
system.cpu.numCycles                                0                       # number of cpu cycles simulated
system.cpu.numWorkItemsCompleted                    0                       # number of work items this cpu completed
system.cpu.numWorkItemsStarted                      0                       # number of work items this cpu started
system.cpu.num_busy_cycles                          0                       # Number of busy cycles
system.cpu.num_conditional_control_insts            0                       # number of instructions that are conditional controls
system.cpu.num_fp_alu_accesses                      0                       # Number of float alu accesses
system.cpu.num_fp_insts                             0                       # number of float instructions
system.cpu.num_fp_register_reads                    0                       # number of times the floating registers were read
system.cpu.num_fp_register_writes                   0                       # number of times the floating registers were written
system.cpu.num_func_calls                           0                       # number of times a function call or return occured
system.cpu.num_idle_cycles                          0                       # Number of idle cycles
system.cpu.num_int_alu_accesses                     0                       # Number of integer alu accesses
system.cpu.num_int_insts                            0                       # number of integer instructions
system.cpu.num_int_register_reads                   0                       # number of times the integer registers were read
system.cpu.num_int_register_writes                  0                       # number of times the integer registers were written
system.cpu.num_load_insts                           0                       # Number of load instructions
system.cpu.num_mem_refs                             0                       # number of memory refs
system.cpu.num_store_insts                          0                       # Number of store instructions
system.cpu.num_vec_alu_accesses                     0                       # Number of vector alu accesses
system.cpu.num_vec_insts                            0                       # number of vector instructions
system.cpu.num_vec_register_reads                   0                       # number of times the vector registers were read
system.cpu.num_vec_register_writes                  0                       # number of times the vector registers were written
system.cpu.op_class::No_OpClass                     0                       # Class of executed instruction
system.cpu.op_class::IntAlu                         0                       # Class of executed instruction
system.cpu.op_class::IntMult                        0                       # Class of executed instruction
system.cpu.op_class::IntDiv                         0                       # Class of executed instruction
system.cpu.op_class::FloatAdd                       0                       # Class of executed instruction
system.cpu.op_class::FloatCmp                       0                       # Class of executed instruction
system.cpu.op_class::FloatCvt                       0                       # Class of executed instruction
system.cpu.op_class::FloatMult                      0                       # Class of executed instruction
system.cpu.op_class::FloatMultAcc                   0                       # Class of executed instruction
system.cpu.op_class::FloatDiv                       0                       # Class of executed instruction
system.cpu.op_class::FloatMisc                      0                       # Class of executed instruction
system.cpu.op_class::FloatSqrt                      0                       # Class of executed instruction
system.cpu.op_class::SimdAdd                        0                       # Class of executed instruction
system.cpu.op_class::SimdAddAcc                     0                       # Class of executed instruction
system.cpu.op_class::SimdAlu                        0                       # Class of executed instruction
system.cpu.op_class::SimdCmp                        0                       # Class of executed instruction
system.cpu.op_class::SimdCvt                        0                       # Class of executed instruction
system.cpu.op_class::SimdMisc                       0                       # Class of executed instruction
system.cpu.op_class::SimdMult                       0                       # Class of executed instruction
system.cpu.op_class::SimdMultAcc                    0                       # Class of executed instruction
system.cpu.op_class::SimdShift                      0                       # Class of executed instruction
system.cpu.op_class::SimdShiftAcc                   0                       # Class of executed instruction
system.cpu.op_class::SimdDiv                        0                       # Class of executed instruction
system.cpu.op_class::SimdSqrt                       0                       # Class of executed instruction
system.cpu.op_class::SimdFloatAdd                   0                       # Class of executed instruction
system.cpu.op_class::SimdFloatAlu                   0                       # Class of executed instruction
system.cpu.op_class::SimdFloatCmp                   0                       # Class of executed instruction
system.cpu.op_class::SimdFloatCvt                   0                       # Class of executed instruction
system.cpu.op_class::SimdFloatDiv                   0                       # Class of executed instruction
system.cpu.op_class::SimdFloatMisc                  0                       # Class of executed instruction
system.cpu.op_class::SimdFloatMult                  0                       # Class of executed instruction
system.cpu.op_class::SimdFloatMultAcc               0                       # Class of executed instruction
system.cpu.op_class::SimdFloatSqrt                  0                       # Class of executed instruction
system.cpu.op_class::SimdReduceAdd                  0                       # Class of executed instruction
system.cpu.op_class::SimdReduceAlu                  0                       # Class of executed instruction
system.cpu.op_class::SimdReduceCmp                  0                       # Class of executed instruction
system.cpu.op_class::SimdFloatReduceAdd             0                       # Class of executed instruction
system.cpu.op_class::SimdFloatReduceCmp             0                       # Class of executed instruction
system.cpu.op_class::SimdAes                        0                       # Class of executed instruction
system.cpu.op_class::SimdAesMix                     0                       # Class of executed instruction
system.cpu.op_class::SimdSha1Hash                   0                       # Class of executed instruction
system.cpu.op_class::SimdSha1Hash2                  0                       # Class of executed instruction
system.cpu.op_class::SimdSha256Hash                 0                       # Class of executed instruction
system.cpu.op_class::SimdSha256Hash2                0                       # Class of executed instruction
system.cpu.op_class::SimdShaSigma2                  0                       # Class of executed instruction
system.cpu.op_class::SimdShaSigma3                  0                       # Class of executed instruction
system.cpu.op_class::SimdPredAlu                    0                       # Class of executed instruction
system.cpu.op_class::MemRead                        0                       # Class of executed instruction
system.cpu.op_class::MemWrite                       0                       # Class of executed instruction
system.cpu.op_class::FloatMemRead                   0                       # Class of executed instruction
system.cpu.op_class::FloatMemWrite                  0                       # Class of executed instruction
system.cpu.op_class::IprAccess                      0                       # Class of executed instruction
system.cpu.op_class::InstPrefetch                   0                       # Class of executed instruction
system.cpu.op_class::total                          0                       # Class of executed instruction
system.cpu.workload.numSyscalls                     0                       # Number of system calls
system.membus.snoop_filter.hit_multi_requests            0                       # Number of requests hitting in the snoop filter with multiple (>1) holders of the requested data.
system.membus.snoop_filter.hit_multi_snoops            0                       # Number of snoops hitting in the snoop filter with multiple (>1) holders of the requested data.
system.membus.snoop_filter.hit_single_requests     55745064                       # Number of requests hitting in the snoop filter with a single holder of the requested data.
system.membus.snoop_filter.hit_single_snoops            0                       # Number of snoops hitting in the snoop filter with a single holder of the requested data.
system.membus.snoop_filter.tot_requests     111490496                       # Total number of requests made to the snoop filter.
system.membus.snoop_filter.tot_snoops               0                       # Total number of snoops made to the snoop filter.
system.switch_cpus.committedInsts                   0                       # Number of instructions committed
system.switch_cpus.committedOps                     0                       # Number of ops (including micro ops) committed
system.switch_cpus.dtb.rdAccesses                   0                       # TLB accesses on read requests
system.switch_cpus.dtb.rdMisses                     0                       # TLB misses on read requests
system.switch_cpus.dtb.wrAccesses                   0                       # TLB accesses on write requests
system.switch_cpus.dtb.wrMisses                     0                       # TLB misses on write requests
system.switch_cpus.idle_fraction                    0                       # Percentage of idle cycles
system.switch_cpus.itb.rdAccesses                   0                       # TLB accesses on read requests
system.switch_cpus.itb.rdMisses                     0                       # TLB misses on read requests
system.switch_cpus.itb.wrAccesses                   0                       # TLB accesses on write requests
system.switch_cpus.itb.wrMisses                     0                       # TLB misses on write requests
system.switch_cpus.not_idle_fraction                1                       # Percentage of non-idle cycles
system.switch_cpus.numCycles                        0                       # number of cpu cycles simulated
system.switch_cpus.numWorkItemsCompleted            0                       # number of work items this cpu completed
system.switch_cpus.numWorkItemsStarted              0                       # number of work items this cpu started
system.switch_cpus.num_busy_cycles                  0                       # Number of busy cycles
system.switch_cpus.num_conditional_control_insts            0                       # number of instructions that are conditional controls
system.switch_cpus.num_fp_alu_accesses              0                       # Number of float alu accesses
system.switch_cpus.num_fp_insts                     0                       # number of float instructions
system.switch_cpus.num_fp_register_reads            0                       # number of times the floating registers were read
system.switch_cpus.num_fp_register_writes            0                       # number of times the floating registers were written
system.switch_cpus.num_func_calls                   0                       # number of times a function call or return occured
system.switch_cpus.num_idle_cycles                  0                       # Number of idle cycles
system.switch_cpus.num_int_alu_accesses             0                       # Number of integer alu accesses
system.switch_cpus.num_int_insts                    0                       # number of integer instructions
system.switch_cpus.num_int_register_reads            0                       # number of times the integer registers were read
system.switch_cpus.num_int_register_writes            0                       # number of times the integer registers were written
system.switch_cpus.num_load_insts                   0                       # Number of load instructions
system.switch_cpus.num_mem_refs                     0                       # number of memory refs
system.switch_cpus.num_store_insts                  0                       # Number of store instructions
system.switch_cpus.num_vec_alu_accesses             0                       # Number of vector alu accesses
system.switch_cpus.num_vec_insts                    0                       # number of vector instructions
system.switch_cpus.num_vec_register_reads            0                       # number of times the vector registers were read
system.switch_cpus.num_vec_register_writes            0                       # number of times the vector registers were written
system.switch_cpus.op_class::No_OpClass             0                       # Class of executed instruction
system.switch_cpus.op_class::IntAlu                 0                       # Class of executed instruction
system.switch_cpus.op_class::IntMult                0                       # Class of executed instruction
system.switch_cpus.op_class::IntDiv                 0                       # Class of executed instruction
system.switch_cpus.op_class::FloatAdd               0                       # Class of executed instruction
system.switch_cpus.op_class::FloatCmp               0                       # Class of executed instruction
system.switch_cpus.op_class::FloatCvt               0                       # Class of executed instruction
system.switch_cpus.op_class::FloatMult              0                       # Class of executed instruction
system.switch_cpus.op_class::FloatMultAcc            0                       # Class of executed instruction
system.switch_cpus.op_class::FloatDiv               0                       # Class of executed instruction
system.switch_cpus.op_class::FloatMisc              0                       # Class of executed instruction
system.switch_cpus.op_class::FloatSqrt              0                       # Class of executed instruction
system.switch_cpus.op_class::SimdAdd                0                       # Class of executed instruction
system.switch_cpus.op_class::SimdAddAcc             0                       # Class of executed instruction
system.switch_cpus.op_class::SimdAlu                0                       # Class of executed instruction
system.switch_cpus.op_class::SimdCmp                0                       # Class of executed instruction
system.switch_cpus.op_class::SimdCvt                0                       # Class of executed instruction
system.switch_cpus.op_class::SimdMisc               0                       # Class of executed instruction
system.switch_cpus.op_class::SimdMult               0                       # Class of executed instruction
system.switch_cpus.op_class::SimdMultAcc            0                       # Class of executed instruction
system.switch_cpus.op_class::SimdShift              0                       # Class of executed instruction
system.switch_cpus.op_class::SimdShiftAcc            0                       # Class of executed instruction
system.switch_cpus.op_class::SimdDiv                0                       # Class of executed instruction
system.switch_cpus.op_class::SimdSqrt               0                       # Class of executed instruction
system.switch_cpus.op_class::SimdFloatAdd            0                       # Class of executed instruction
system.switch_cpus.op_class::SimdFloatAlu            0                       # Class of executed instruction
system.switch_cpus.op_class::SimdFloatCmp            0                       # Class of executed instruction
system.switch_cpus.op_class::SimdFloatCvt            0                       # Class of executed instruction
system.switch_cpus.op_class::SimdFloatDiv            0                       # Class of executed instruction
system.switch_cpus.op_class::SimdFloatMisc            0                       # Class of executed instruction
system.switch_cpus.op_class::SimdFloatMult            0                       # Class of executed instruction
system.switch_cpus.op_class::SimdFloatMultAcc            0                       # Class of executed instruction
system.switch_cpus.op_class::SimdFloatSqrt            0                       # Class of executed instruction
system.switch_cpus.op_class::SimdReduceAdd            0                       # Class of executed instruction
system.switch_cpus.op_class::SimdReduceAlu            0                       # Class of executed instruction
system.switch_cpus.op_class::SimdReduceCmp            0                       # Class of executed instruction
system.switch_cpus.op_class::SimdFloatReduceAdd            0                       # Class of executed instruction
system.switch_cpus.op_class::SimdFloatReduceCmp            0                       # Class of executed instruction
system.switch_cpus.op_class::SimdAes                0                       # Class of executed instruction
system.switch_cpus.op_class::SimdAesMix             0                       # Class of executed instruction
system.switch_cpus.op_class::SimdSha1Hash            0                       # Class of executed instruction
system.switch_cpus.op_class::SimdSha1Hash2            0                       # Class of executed instruction
system.switch_cpus.op_class::SimdSha256Hash            0                       # Class of executed instruction
system.switch_cpus.op_class::SimdSha256Hash2            0                       # Class of executed instruction
system.switch_cpus.op_class::SimdShaSigma2            0                       # Class of executed instruction
system.switch_cpus.op_class::SimdShaSigma3            0                       # Class of executed instruction
system.switch_cpus.op_class::SimdPredAlu            0                       # Class of executed instruction
system.switch_cpus.op_class::MemRead                0                       # Class of executed instruction
system.switch_cpus.op_class::MemWrite               0                       # Class of executed instruction
system.switch_cpus.op_class::FloatMemRead            0                       # Class of executed instruction
system.switch_cpus.op_class::FloatMemWrite            0                       # Class of executed instruction
system.switch_cpus.op_class::IprAccess              0                       # Class of executed instruction
system.switch_cpus.op_class::InstPrefetch            0                       # Class of executed instruction
system.switch_cpus.op_class::total                  0                       # Class of executed instruction
system.switch_cpus_1.branchPred.BTBCorrect            0                       # Number of correct BTB predictions (this stat may not work properly.
system.switch_cpus_1.branchPred.BTBHitPct          nan                       # BTB Hit Percentage
system.switch_cpus_1.branchPred.BTBHits             0                       # Number of BTB hits
system.switch_cpus_1.branchPred.BTBLookups            0                       # Number of BTB lookups
system.switch_cpus_1.branchPred.RASInCorrect         1855                       # Number of incorrect RAS predictions.
system.switch_cpus_1.branchPred.condIncorrect     82174228                       # Number of conditional branches incorrect
system.switch_cpus_1.branchPred.condPredicted   1099916349                       # Number of conditional branches predicted
system.switch_cpus_1.branchPred.indirectHits    289191596                       # Number of indirect target hits.
system.switch_cpus_1.branchPred.indirectLookups    616821766                       # Number of indirect predictor lookups.
system.switch_cpus_1.branchPred.indirectMisses    327630170                       # Number of indirect misses.
system.switch_cpus_1.branchPred.lookups    1203121402                       # Number of BP lookups
system.switch_cpus_1.branchPred.usedRAS      54712351                       # Number of times the RAS was used to get a target.
system.switch_cpus_1.branchPredindirectMispredicted     38155688                       # Number of mispredicted indirect branches.
system.switch_cpus_1.cc_regfile_reads      2051147881                       # number of cc regfile reads
system.switch_cpus_1.cc_regfile_writes     1337507226                       # number of cc regfile writes
system.switch_cpus_1.commit.amos                    0                       # Number of atomic instructions committed
system.switch_cpus_1.commit.branchMispredicts     82176367                       # The number of times a branch was mispredicted
system.switch_cpus_1.commit.branches        255270542                       # Number of branches committed
system.switch_cpus_1.commit.bw_lim_events     80361219                       # number cycles where commit BW limit reached
system.switch_cpus_1.commit.commitSquashedInsts   3491764370                       # The number of squashed insts skipped by commit
system.switch_cpus_1.commit.committedInsts   1000000000                       # Number of instructions committed
system.switch_cpus_1.commit.committedOps   1748593337                       # Number of ops (including micro ops) committed
system.switch_cpus_1.commit.committed_per_cycle::samples   5886081558                       # Number of insts commited each cycle
system.switch_cpus_1.commit.committed_per_cycle::mean     0.297073                       # Number of insts commited each cycle
system.switch_cpus_1.commit.committed_per_cycle::stdev     1.207960                       # Number of insts commited each cycle
system.switch_cpus_1.commit.committed_per_cycle::underflows            0      0.00%      0.00% # Number of insts commited each cycle
system.switch_cpus_1.commit.committed_per_cycle::0   5376585792     91.34%     91.34% # Number of insts commited each cycle
system.switch_cpus_1.commit.committed_per_cycle::1    164588187      2.80%     94.14% # Number of insts commited each cycle
system.switch_cpus_1.commit.committed_per_cycle::2     53931401      0.92%     95.06% # Number of insts commited each cycle
system.switch_cpus_1.commit.committed_per_cycle::3    110782293      1.88%     96.94% # Number of insts commited each cycle
system.switch_cpus_1.commit.committed_per_cycle::4     31473290      0.53%     97.47% # Number of insts commited each cycle
system.switch_cpus_1.commit.committed_per_cycle::5     40060986      0.68%     98.15% # Number of insts commited each cycle
system.switch_cpus_1.commit.committed_per_cycle::6     23381103      0.40%     98.55% # Number of insts commited each cycle
system.switch_cpus_1.commit.committed_per_cycle::7      4917287      0.08%     98.63% # Number of insts commited each cycle
system.switch_cpus_1.commit.committed_per_cycle::8     80361219      1.37%    100.00% # Number of insts commited each cycle
system.switch_cpus_1.commit.committed_per_cycle::overflows            0      0.00%    100.00% # Number of insts commited each cycle
system.switch_cpus_1.commit.committed_per_cycle::min_value            0                       # Number of insts commited each cycle
system.switch_cpus_1.commit.committed_per_cycle::max_value            8                       # Number of insts commited each cycle
system.switch_cpus_1.commit.committed_per_cycle::total   5886081558                       # Number of insts commited each cycle
system.switch_cpus_1.commit.fp_insts                0                       # Number of committed floating point instructions.
system.switch_cpus_1.commit.function_calls      1511731                       # Number of function calls committed.
system.switch_cpus_1.commit.int_insts      1743072331                       # Number of committed integer instructions.
system.switch_cpus_1.commit.loads           368544021                       # Number of loads committed
system.switch_cpus_1.commit.membars                 0                       # Number of memory barriers committed
system.switch_cpus_1.commit.op_class_0::No_OpClass      3188328      0.18%      0.18% # Class of committed instruction
system.switch_cpus_1.commit.op_class_0::IntAlu   1305809412     74.68%     74.86% # Class of committed instruction
system.switch_cpus_1.commit.op_class_0::IntMult        52800      0.00%     74.86% # Class of committed instruction
system.switch_cpus_1.commit.op_class_0::IntDiv            0      0.00%     74.86% # Class of committed instruction
system.switch_cpus_1.commit.op_class_0::FloatAdd            0      0.00%     74.86% # Class of committed instruction
system.switch_cpus_1.commit.op_class_0::FloatCmp            0      0.00%     74.86% # Class of committed instruction
system.switch_cpus_1.commit.op_class_0::FloatCvt            0      0.00%     74.86% # Class of committed instruction
system.switch_cpus_1.commit.op_class_0::FloatMult            0      0.00%     74.86% # Class of committed instruction
system.switch_cpus_1.commit.op_class_0::FloatMultAcc            0      0.00%     74.86% # Class of committed instruction
system.switch_cpus_1.commit.op_class_0::FloatDiv            0      0.00%     74.86% # Class of committed instruction
system.switch_cpus_1.commit.op_class_0::FloatMisc            0      0.00%     74.86% # Class of committed instruction
system.switch_cpus_1.commit.op_class_0::FloatSqrt            0      0.00%     74.86% # Class of committed instruction
system.switch_cpus_1.commit.op_class_0::SimdAdd            0      0.00%     74.86% # Class of committed instruction
system.switch_cpus_1.commit.op_class_0::SimdAddAcc            0      0.00%     74.86% # Class of committed instruction
system.switch_cpus_1.commit.op_class_0::SimdAlu            0      0.00%     74.86% # Class of committed instruction
system.switch_cpus_1.commit.op_class_0::SimdCmp            0      0.00%     74.86% # Class of committed instruction
system.switch_cpus_1.commit.op_class_0::SimdCvt            0      0.00%     74.86% # Class of committed instruction
system.switch_cpus_1.commit.op_class_0::SimdMisc            0      0.00%     74.86% # Class of committed instruction
system.switch_cpus_1.commit.op_class_0::SimdMult            0      0.00%     74.86% # Class of committed instruction
system.switch_cpus_1.commit.op_class_0::SimdMultAcc            0      0.00%     74.86% # Class of committed instruction
system.switch_cpus_1.commit.op_class_0::SimdShift            0      0.00%     74.86% # Class of committed instruction
system.switch_cpus_1.commit.op_class_0::SimdShiftAcc            0      0.00%     74.86% # Class of committed instruction
system.switch_cpus_1.commit.op_class_0::SimdDiv            0      0.00%     74.86% # Class of committed instruction
system.switch_cpus_1.commit.op_class_0::SimdSqrt            0      0.00%     74.86% # Class of committed instruction
system.switch_cpus_1.commit.op_class_0::SimdFloatAdd            0      0.00%     74.86% # Class of committed instruction
system.switch_cpus_1.commit.op_class_0::SimdFloatAlu            0      0.00%     74.86% # Class of committed instruction
system.switch_cpus_1.commit.op_class_0::SimdFloatCmp            0      0.00%     74.86% # Class of committed instruction
system.switch_cpus_1.commit.op_class_0::SimdFloatCvt            0      0.00%     74.86% # Class of committed instruction
system.switch_cpus_1.commit.op_class_0::SimdFloatDiv            0      0.00%     74.86% # Class of committed instruction
system.switch_cpus_1.commit.op_class_0::SimdFloatMisc            0      0.00%     74.86% # Class of committed instruction
system.switch_cpus_1.commit.op_class_0::SimdFloatMult            0      0.00%     74.86% # Class of committed instruction
system.switch_cpus_1.commit.op_class_0::SimdFloatMultAcc            0      0.00%     74.86% # Class of committed instruction
system.switch_cpus_1.commit.op_class_0::SimdFloatSqrt            0      0.00%     74.86% # Class of committed instruction
system.switch_cpus_1.commit.op_class_0::SimdReduceAdd            0      0.00%     74.86% # Class of committed instruction
system.switch_cpus_1.commit.op_class_0::SimdReduceAlu            0      0.00%     74.86% # Class of committed instruction
system.switch_cpus_1.commit.op_class_0::SimdReduceCmp            0      0.00%     74.86% # Class of committed instruction
system.switch_cpus_1.commit.op_class_0::SimdFloatReduceAdd            0      0.00%     74.86% # Class of committed instruction
system.switch_cpus_1.commit.op_class_0::SimdFloatReduceCmp            0      0.00%     74.86% # Class of committed instruction
system.switch_cpus_1.commit.op_class_0::SimdAes            0      0.00%     74.86% # Class of committed instruction
system.switch_cpus_1.commit.op_class_0::SimdAesMix            0      0.00%     74.86% # Class of committed instruction
system.switch_cpus_1.commit.op_class_0::SimdSha1Hash            0      0.00%     74.86% # Class of committed instruction
system.switch_cpus_1.commit.op_class_0::SimdSha1Hash2            0      0.00%     74.86% # Class of committed instruction
system.switch_cpus_1.commit.op_class_0::SimdSha256Hash            0      0.00%     74.86% # Class of committed instruction
system.switch_cpus_1.commit.op_class_0::SimdSha256Hash2            0      0.00%     74.86% # Class of committed instruction
system.switch_cpus_1.commit.op_class_0::SimdShaSigma2            0      0.00%     74.86% # Class of committed instruction
system.switch_cpus_1.commit.op_class_0::SimdShaSigma3            0      0.00%     74.86% # Class of committed instruction
system.switch_cpus_1.commit.op_class_0::SimdPredAlu            0      0.00%     74.86% # Class of committed instruction
system.switch_cpus_1.commit.op_class_0::MemRead    368544021     21.08%     95.94% # Class of committed instruction
system.switch_cpus_1.commit.op_class_0::MemWrite     70998776      4.06%    100.00% # Class of committed instruction
system.switch_cpus_1.commit.op_class_0::FloatMemRead            0      0.00%    100.00% # Class of committed instruction
system.switch_cpus_1.commit.op_class_0::FloatMemWrite            0      0.00%    100.00% # Class of committed instruction
system.switch_cpus_1.commit.op_class_0::IprAccess            0      0.00%    100.00% # Class of committed instruction
system.switch_cpus_1.commit.op_class_0::InstPrefetch            0      0.00%    100.00% # Class of committed instruction
system.switch_cpus_1.commit.op_class_0::total   1748593337                       # Class of committed instruction
system.switch_cpus_1.commit.refs            439542797                       # Number of memory references committed
system.switch_cpus_1.commit.swp_count               0                       # Number of s/w prefetches committed
system.switch_cpus_1.commit.vec_insts               0                       # Number of committed Vector instructions.
system.switch_cpus_1.committedInsts        1000000000                       # Number of Instructions Simulated
system.switch_cpus_1.committedOps          1748593337                       # Number of Ops (including micro ops) Simulated
system.switch_cpus_1.cpi                     6.449994                       # CPI: Cycles Per Instruction
system.switch_cpus_1.cpi_total               6.449994                       # CPI: Total CPI of All Threads
system.switch_cpus_1.decode.BlockedCycles   5263743079                       # Number of cycles decode is blocked
system.switch_cpus_1.decode.DecodedInsts   6566057914                       # Number of instructions handled by decode
system.switch_cpus_1.decode.IdleCycles      241126657                       # Number of cycles decode is idle
system.switch_cpus_1.decode.RunCycles       615054933                       # Number of cycles decode is running
system.switch_cpus_1.decode.SquashCycles     82577164                       # Number of cycles decode is squashing
system.switch_cpus_1.decode.UnblockCycles    247217116                       # Number of cycles decode is unblocking
system.switch_cpus_1.dtb.rdAccesses         761842291                       # TLB accesses on read requests
system.switch_cpus_1.dtb.rdMisses            92538061                       # TLB misses on read requests
system.switch_cpus_1.dtb.wrAccesses         154497251                       # TLB accesses on write requests
system.switch_cpus_1.dtb.wrMisses             1289534                       # TLB misses on write requests
system.switch_cpus_1.fetch.Branches        1203121402                       # Number of branches that fetch encountered
system.switch_cpus_1.fetch.CacheLines       493859568                       # Number of cache lines fetched
system.switch_cpus_1.fetch.Cycles          6301893821                       # Number of cycles fetch has run and was not squashing or blocked
system.switch_cpus_1.fetch.IcacheSquashes            3                       # Number of outstanding Icache misses that were squashed
system.switch_cpus_1.fetch.Insts           4865779204                       # Number of instructions fetch has processed
system.switch_cpus_1.fetch.ItlbSquashes            15                       # Number of outstanding ITLB misses that were squashed
system.switch_cpus_1.fetch.MiscStallCycles         1208                       # Number of cycles fetch has spent waiting on interrupts, or bad addresses, or out of MSHRs
system.switch_cpus_1.fetch.PendingTrapStallCycles       149283                       # Number of stall cycles due to pending traps
system.switch_cpus_1.fetch.SquashCycles     165154328                       # Number of cycles fetch has spent squashing
system.switch_cpus_1.fetch.TlbCycles             6123                       # Number of cycles fetch has spent waiting for tlb
system.switch_cpus_1.fetch.branchRate        0.186531                       # Number of branch fetches per cycle
system.switch_cpus_1.fetch.icacheStallCycles     65091356                       # Number of cycles fetch is stalled on an Icache miss
system.switch_cpus_1.fetch.predictedBranches    343903947                       # Number of branches that fetch has predicted taken
system.switch_cpus_1.fetch.rate              0.754385                       # Number of inst fetches per cycle
system.switch_cpus_1.fetch.rateDist::samples   6449718955                       # Number of instructions fetched each cycle (Total)
system.switch_cpus_1.fetch.rateDist::mean     1.340782                       # Number of instructions fetched each cycle (Total)
system.switch_cpus_1.fetch.rateDist::stdev     2.802388                       # Number of instructions fetched each cycle (Total)
system.switch_cpus_1.fetch.rateDist::underflows            0      0.00%      0.00% # Number of instructions fetched each cycle (Total)
system.switch_cpus_1.fetch.rateDist::0     5095007708     79.00%     79.00% # Number of instructions fetched each cycle (Total)
system.switch_cpus_1.fetch.rateDist::1       63318727      0.98%     79.98% # Number of instructions fetched each cycle (Total)
system.switch_cpus_1.fetch.rateDist::2       84401889      1.31%     81.29% # Number of instructions fetched each cycle (Total)
system.switch_cpus_1.fetch.rateDist::3       67807847      1.05%     82.34% # Number of instructions fetched each cycle (Total)
system.switch_cpus_1.fetch.rateDist::4       88367539      1.37%     83.71% # Number of instructions fetched each cycle (Total)
system.switch_cpus_1.fetch.rateDist::5      119612618      1.85%     85.56% # Number of instructions fetched each cycle (Total)
system.switch_cpus_1.fetch.rateDist::6       34934709      0.54%     86.10% # Number of instructions fetched each cycle (Total)
system.switch_cpus_1.fetch.rateDist::7      119164237      1.85%     87.95% # Number of instructions fetched each cycle (Total)
system.switch_cpus_1.fetch.rateDist::8      777103681     12.05%    100.00% # Number of instructions fetched each cycle (Total)
system.switch_cpus_1.fetch.rateDist::overflows            0      0.00%    100.00% # Number of instructions fetched each cycle (Total)
system.switch_cpus_1.fetch.rateDist::min_value            0                       # Number of instructions fetched each cycle (Total)
system.switch_cpus_1.fetch.rateDist::max_value            8                       # Number of instructions fetched each cycle (Total)
system.switch_cpus_1.fetch.rateDist::total   6449718955                       # Number of instructions fetched each cycle (Total)
system.switch_cpus_1.idleCycles                275022                       # Total number of cycles that the CPU has spent unscheduled due to idling
system.switch_cpus_1.iew.branchMispredicts    112317529                       # Number of branch mispredicts detected at execute
system.switch_cpus_1.iew.exec_branches      479483064                       # Number of branches executed
system.switch_cpus_1.iew.exec_nop                   0                       # number of nop insts executed
system.switch_cpus_1.iew.exec_rate           0.648547                       # Inst execution rate
system.switch_cpus_1.iew.exec_refs         1125745547                       # number of memory reference insts executed
system.switch_cpus_1.iew.exec_stores        154497251                       # Number of stores executed
system.switch_cpus_1.iew.exec_swp                   0                       # number of swp insts executed
system.switch_cpus_1.iew.iewBlockCycles    3054501541                       # Number of cycles IEW is blocking
system.switch_cpus_1.iew.iewDispLoadInsts    999093591                       # Number of dispatched load instructions
system.switch_cpus_1.iew.iewDispNonSpecInsts            0                       # Number of dispatched non-speculative instructions
system.switch_cpus_1.iew.iewDispSquashedInsts      6349084                       # Number of squashed instructions skipped by dispatch
system.switch_cpus_1.iew.iewDispStoreInsts    273950361                       # Number of dispatched store instructions
system.switch_cpus_1.iew.iewDispatchedInsts   5235808705                       # Number of instructions dispatched to IQ
system.switch_cpus_1.iew.iewExecLoadInsts    971248296                       # Number of load instructions executed
system.switch_cpus_1.iew.iewExecSquashedInsts    201697786                       # Number of squashed instructions skipped in execute
system.switch_cpus_1.iew.iewExecutedInsts   4183126824                       # Number of executed instructions
system.switch_cpus_1.iew.iewIQFullEvents     26076558                       # Number of times the IQ has become full, causing a stall
system.switch_cpus_1.iew.iewIdleCycles              0                       # Number of cycles IEW is idle
system.switch_cpus_1.iew.iewLSQFullEvents    296808506                       # Number of times the LSQ has become full, causing a stall
system.switch_cpus_1.iew.iewSquashCycles     82577164                       # Number of cycles IEW is squashing
system.switch_cpus_1.iew.iewUnblockCycles    341258319                       # Number of cycles IEW is unblocking
system.switch_cpus_1.iew.lsq.thread0.blockedLoads            0                       # Number of blocked loads due to partial load-store forwarding
system.switch_cpus_1.iew.lsq.thread0.cacheBlocked     35600512                       # Number of times an access to memory failed due to the cache being blocked
system.switch_cpus_1.iew.lsq.thread0.forwLoads     17865634                       # Number of loads that had data forwarded from stores
system.switch_cpus_1.iew.lsq.thread0.ignoredResponses        56782                       # Number of memory responses ignored because the instruction is squashed
system.switch_cpus_1.iew.lsq.thread0.invAddrLoads            0                       # Number of loads ignored due to an invalid address
system.switch_cpus_1.iew.lsq.thread0.invAddrSwpfs            0                       # Number of software prefetches ignored due to an invalid address
system.switch_cpus_1.iew.lsq.thread0.memOrderViolation       472961                       # Number of memory ordering violations
system.switch_cpus_1.iew.lsq.thread0.rescheduledLoads            0                       # Number of loads that were rescheduled
system.switch_cpus_1.iew.lsq.thread0.squashedLoads    630549560                       # Number of loads squashed
system.switch_cpus_1.iew.lsq.thread0.squashedStores    202951583                       # Number of stores squashed
system.switch_cpus_1.iew.memOrderViolationEvents       472961                       # Number of memory order violations
system.switch_cpus_1.iew.predictedNotTakenIncorrect    100060143                       # Number of branches that were predicted not taken incorrectly
system.switch_cpus_1.iew.predictedTakenIncorrect     12257386                       # Number of branches that were predicted taken incorrectly
system.switch_cpus_1.iew.wb_consumers      4207079567                       # num instructions consuming a value
system.switch_cpus_1.iew.wb_count          3829375415                       # cumulative count of insts written-back
system.switch_cpus_1.iew.wb_fanout           0.666806                       # average fanout of values written-back
system.switch_cpus_1.iew.wb_producers      2805305953                       # num instructions producing a value
system.switch_cpus_1.iew.wb_rate             0.593702                       # insts written-back per cycle
system.switch_cpus_1.iew.wb_sent           3872460049                       # cumulative count of insts sent to commit
system.switch_cpus_1.int_regfile_reads     5327311860                       # number of integer regfile reads
system.switch_cpus_1.int_regfile_writes    3179210011                       # number of integer regfile writes
system.switch_cpus_1.ipc                     0.155039                       # IPC: Instructions Per Cycle
system.switch_cpus_1.ipc_total               0.155039                       # IPC: Total IPC of All Threads
system.switch_cpus_1.iq.FU_type_0::No_OpClass     35070997      0.80%      0.80% # Type of FU issued
system.switch_cpus_1.iq.FU_type_0::IntAlu   3164357696     72.17%     72.97% # Type of FU issued
system.switch_cpus_1.iq.FU_type_0::IntMult        75668      0.00%     72.97% # Type of FU issued
system.switch_cpus_1.iq.FU_type_0::IntDiv            0      0.00%     72.97% # Type of FU issued
system.switch_cpus_1.iq.FU_type_0::FloatAdd            0      0.00%     72.97% # Type of FU issued
system.switch_cpus_1.iq.FU_type_0::FloatCmp            0      0.00%     72.97% # Type of FU issued
system.switch_cpus_1.iq.FU_type_0::FloatCvt            0      0.00%     72.97% # Type of FU issued
system.switch_cpus_1.iq.FU_type_0::FloatMult            0      0.00%     72.97% # Type of FU issued
system.switch_cpus_1.iq.FU_type_0::FloatMultAcc            0      0.00%     72.97% # Type of FU issued
system.switch_cpus_1.iq.FU_type_0::FloatDiv            0      0.00%     72.97% # Type of FU issued
system.switch_cpus_1.iq.FU_type_0::FloatMisc            0      0.00%     72.97% # Type of FU issued
system.switch_cpus_1.iq.FU_type_0::FloatSqrt            0      0.00%     72.97% # Type of FU issued
system.switch_cpus_1.iq.FU_type_0::SimdAdd            0      0.00%     72.97% # Type of FU issued
system.switch_cpus_1.iq.FU_type_0::SimdAddAcc            0      0.00%     72.97% # Type of FU issued
system.switch_cpus_1.iq.FU_type_0::SimdAlu            0      0.00%     72.97% # Type of FU issued
system.switch_cpus_1.iq.FU_type_0::SimdCmp            0      0.00%     72.97% # Type of FU issued
system.switch_cpus_1.iq.FU_type_0::SimdCvt            0      0.00%     72.97% # Type of FU issued
system.switch_cpus_1.iq.FU_type_0::SimdMisc            0      0.00%     72.97% # Type of FU issued
system.switch_cpus_1.iq.FU_type_0::SimdMult            0      0.00%     72.97% # Type of FU issued
system.switch_cpus_1.iq.FU_type_0::SimdMultAcc            0      0.00%     72.97% # Type of FU issued
system.switch_cpus_1.iq.FU_type_0::SimdShift            0      0.00%     72.97% # Type of FU issued
system.switch_cpus_1.iq.FU_type_0::SimdShiftAcc            0      0.00%     72.97% # Type of FU issued
system.switch_cpus_1.iq.FU_type_0::SimdDiv            0      0.00%     72.97% # Type of FU issued
system.switch_cpus_1.iq.FU_type_0::SimdSqrt            0      0.00%     72.97% # Type of FU issued
system.switch_cpus_1.iq.FU_type_0::SimdFloatAdd            0      0.00%     72.97% # Type of FU issued
system.switch_cpus_1.iq.FU_type_0::SimdFloatAlu            0      0.00%     72.97% # Type of FU issued
system.switch_cpus_1.iq.FU_type_0::SimdFloatCmp            0      0.00%     72.97% # Type of FU issued
system.switch_cpus_1.iq.FU_type_0::SimdFloatCvt            0      0.00%     72.97% # Type of FU issued
system.switch_cpus_1.iq.FU_type_0::SimdFloatDiv            0      0.00%     72.97% # Type of FU issued
system.switch_cpus_1.iq.FU_type_0::SimdFloatMisc            0      0.00%     72.97% # Type of FU issued
system.switch_cpus_1.iq.FU_type_0::SimdFloatMult            0      0.00%     72.97% # Type of FU issued
system.switch_cpus_1.iq.FU_type_0::SimdFloatMultAcc            0      0.00%     72.97% # Type of FU issued
system.switch_cpus_1.iq.FU_type_0::SimdFloatSqrt            0      0.00%     72.97% # Type of FU issued
system.switch_cpus_1.iq.FU_type_0::SimdReduceAdd            0      0.00%     72.97% # Type of FU issued
system.switch_cpus_1.iq.FU_type_0::SimdReduceAlu            0      0.00%     72.97% # Type of FU issued
system.switch_cpus_1.iq.FU_type_0::SimdReduceCmp            0      0.00%     72.97% # Type of FU issued
system.switch_cpus_1.iq.FU_type_0::SimdFloatReduceAdd            0      0.00%     72.97% # Type of FU issued
system.switch_cpus_1.iq.FU_type_0::SimdFloatReduceCmp            0      0.00%     72.97% # Type of FU issued
system.switch_cpus_1.iq.FU_type_0::SimdAes            0      0.00%     72.97% # Type of FU issued
system.switch_cpus_1.iq.FU_type_0::SimdAesMix            0      0.00%     72.97% # Type of FU issued
system.switch_cpus_1.iq.FU_type_0::SimdSha1Hash            0      0.00%     72.97% # Type of FU issued
system.switch_cpus_1.iq.FU_type_0::SimdSha1Hash2            0      0.00%     72.97% # Type of FU issued
system.switch_cpus_1.iq.FU_type_0::SimdSha256Hash            0      0.00%     72.97% # Type of FU issued
system.switch_cpus_1.iq.FU_type_0::SimdSha256Hash2            0      0.00%     72.97% # Type of FU issued
system.switch_cpus_1.iq.FU_type_0::SimdShaSigma2            0      0.00%     72.97% # Type of FU issued
system.switch_cpus_1.iq.FU_type_0::SimdShaSigma3            0      0.00%     72.97% # Type of FU issued
system.switch_cpus_1.iq.FU_type_0::SimdPredAlu            0      0.00%     72.97% # Type of FU issued
system.switch_cpus_1.iq.FU_type_0::MemRead   1014862974     23.14%     96.11% # Type of FU issued
system.switch_cpus_1.iq.FU_type_0::MemWrite    170457279      3.89%    100.00% # Type of FU issued
system.switch_cpus_1.iq.FU_type_0::FloatMemRead            0      0.00%    100.00% # Type of FU issued
system.switch_cpus_1.iq.FU_type_0::FloatMemWrite            0      0.00%    100.00% # Type of FU issued
system.switch_cpus_1.iq.FU_type_0::IprAccess            0      0.00%    100.00% # Type of FU issued
system.switch_cpus_1.iq.FU_type_0::InstPrefetch            0      0.00%    100.00% # Type of FU issued
system.switch_cpus_1.iq.FU_type_0::total   4384824614                       # Type of FU issued
system.switch_cpus_1.iq.fp_alu_accesses             0                       # Number of floating point alu accesses
system.switch_cpus_1.iq.fp_inst_queue_reads            0                       # Number of floating instruction queue reads
system.switch_cpus_1.iq.fp_inst_queue_wakeup_accesses            0                       # Number of floating instruction queue wakeup accesses
system.switch_cpus_1.iq.fp_inst_queue_writes            0                       # Number of floating instruction queue writes
system.switch_cpus_1.iq.fu_busy_cnt         107990611                       # FU busy when requested
system.switch_cpus_1.iq.fu_busy_rate         0.024628                       # FU busy rate (busy events/executed inst)
system.switch_cpus_1.iq.fu_full::No_OpClass            0      0.00%      0.00% # attempts to use FU when none available
system.switch_cpus_1.iq.fu_full::IntAlu      61486142     56.94%     56.94% # attempts to use FU when none available
system.switch_cpus_1.iq.fu_full::IntMult            0      0.00%     56.94% # attempts to use FU when none available
system.switch_cpus_1.iq.fu_full::IntDiv             0      0.00%     56.94% # attempts to use FU when none available
system.switch_cpus_1.iq.fu_full::FloatAdd            0      0.00%     56.94% # attempts to use FU when none available
system.switch_cpus_1.iq.fu_full::FloatCmp            0      0.00%     56.94% # attempts to use FU when none available
system.switch_cpus_1.iq.fu_full::FloatCvt            0      0.00%     56.94% # attempts to use FU when none available
system.switch_cpus_1.iq.fu_full::FloatMult            0      0.00%     56.94% # attempts to use FU when none available
system.switch_cpus_1.iq.fu_full::FloatMultAcc            0      0.00%     56.94% # attempts to use FU when none available
system.switch_cpus_1.iq.fu_full::FloatDiv            0      0.00%     56.94% # attempts to use FU when none available
system.switch_cpus_1.iq.fu_full::FloatMisc            0      0.00%     56.94% # attempts to use FU when none available
system.switch_cpus_1.iq.fu_full::FloatSqrt            0      0.00%     56.94% # attempts to use FU when none available
system.switch_cpus_1.iq.fu_full::SimdAdd            0      0.00%     56.94% # attempts to use FU when none available
system.switch_cpus_1.iq.fu_full::SimdAddAcc            0      0.00%     56.94% # attempts to use FU when none available
system.switch_cpus_1.iq.fu_full::SimdAlu            0      0.00%     56.94% # attempts to use FU when none available
system.switch_cpus_1.iq.fu_full::SimdCmp            0      0.00%     56.94% # attempts to use FU when none available
system.switch_cpus_1.iq.fu_full::SimdCvt            0      0.00%     56.94% # attempts to use FU when none available
system.switch_cpus_1.iq.fu_full::SimdMisc            0      0.00%     56.94% # attempts to use FU when none available
system.switch_cpus_1.iq.fu_full::SimdMult            0      0.00%     56.94% # attempts to use FU when none available
system.switch_cpus_1.iq.fu_full::SimdMultAcc            0      0.00%     56.94% # attempts to use FU when none available
system.switch_cpus_1.iq.fu_full::SimdShift            0      0.00%     56.94% # attempts to use FU when none available
system.switch_cpus_1.iq.fu_full::SimdShiftAcc            0      0.00%     56.94% # attempts to use FU when none available
system.switch_cpus_1.iq.fu_full::SimdDiv            0      0.00%     56.94% # attempts to use FU when none available
system.switch_cpus_1.iq.fu_full::SimdSqrt            0      0.00%     56.94% # attempts to use FU when none available
system.switch_cpus_1.iq.fu_full::SimdFloatAdd            0      0.00%     56.94% # attempts to use FU when none available
system.switch_cpus_1.iq.fu_full::SimdFloatAlu            0      0.00%     56.94% # attempts to use FU when none available
system.switch_cpus_1.iq.fu_full::SimdFloatCmp            0      0.00%     56.94% # attempts to use FU when none available
system.switch_cpus_1.iq.fu_full::SimdFloatCvt            0      0.00%     56.94% # attempts to use FU when none available
system.switch_cpus_1.iq.fu_full::SimdFloatDiv            0      0.00%     56.94% # attempts to use FU when none available
system.switch_cpus_1.iq.fu_full::SimdFloatMisc            0      0.00%     56.94% # attempts to use FU when none available
system.switch_cpus_1.iq.fu_full::SimdFloatMult            0      0.00%     56.94% # attempts to use FU when none available
system.switch_cpus_1.iq.fu_full::SimdFloatMultAcc            0      0.00%     56.94% # attempts to use FU when none available
system.switch_cpus_1.iq.fu_full::SimdFloatSqrt            0      0.00%     56.94% # attempts to use FU when none available
system.switch_cpus_1.iq.fu_full::SimdReduceAdd            0      0.00%     56.94% # attempts to use FU when none available
system.switch_cpus_1.iq.fu_full::SimdReduceAlu            0      0.00%     56.94% # attempts to use FU when none available
system.switch_cpus_1.iq.fu_full::SimdReduceCmp            0      0.00%     56.94% # attempts to use FU when none available
system.switch_cpus_1.iq.fu_full::SimdFloatReduceAdd            0      0.00%     56.94% # attempts to use FU when none available
system.switch_cpus_1.iq.fu_full::SimdFloatReduceCmp            0      0.00%     56.94% # attempts to use FU when none available
system.switch_cpus_1.iq.fu_full::SimdAes            0      0.00%     56.94% # attempts to use FU when none available
system.switch_cpus_1.iq.fu_full::SimdAesMix            0      0.00%     56.94% # attempts to use FU when none available
system.switch_cpus_1.iq.fu_full::SimdSha1Hash            0      0.00%     56.94% # attempts to use FU when none available
system.switch_cpus_1.iq.fu_full::SimdSha1Hash2            0      0.00%     56.94% # attempts to use FU when none available
system.switch_cpus_1.iq.fu_full::SimdSha256Hash            0      0.00%     56.94% # attempts to use FU when none available
system.switch_cpus_1.iq.fu_full::SimdSha256Hash2            0      0.00%     56.94% # attempts to use FU when none available
system.switch_cpus_1.iq.fu_full::SimdShaSigma2            0      0.00%     56.94% # attempts to use FU when none available
system.switch_cpus_1.iq.fu_full::SimdShaSigma3            0      0.00%     56.94% # attempts to use FU when none available
system.switch_cpus_1.iq.fu_full::SimdPredAlu            0      0.00%     56.94% # attempts to use FU when none available
system.switch_cpus_1.iq.fu_full::MemRead     43396775     40.19%     97.12% # attempts to use FU when none available
system.switch_cpus_1.iq.fu_full::MemWrite      3107694      2.88%    100.00% # attempts to use FU when none available
system.switch_cpus_1.iq.fu_full::FloatMemRead            0      0.00%    100.00% # attempts to use FU when none available
system.switch_cpus_1.iq.fu_full::FloatMemWrite            0      0.00%    100.00% # attempts to use FU when none available
system.switch_cpus_1.iq.fu_full::IprAccess            0      0.00%    100.00% # attempts to use FU when none available
system.switch_cpus_1.iq.fu_full::InstPrefetch            0      0.00%    100.00% # attempts to use FU when none available
system.switch_cpus_1.iq.int_alu_accesses   4457744228                       # Number of integer alu accesses
system.switch_cpus_1.iq.int_inst_queue_reads  15412987582                       # Number of integer instruction queue reads
system.switch_cpus_1.iq.int_inst_queue_wakeup_accesses   3829375415                       # Number of integer instruction queue wakeup accesses
system.switch_cpus_1.iq.int_inst_queue_writes   8723439449                       # Number of integer instruction queue writes
system.switch_cpus_1.iq.iqInstsAdded       5235808705                       # Number of instructions added to the IQ (excludes non-spec)
system.switch_cpus_1.iq.iqInstsIssued      4384824614                       # Number of instructions issued
system.switch_cpus_1.iq.iqSquashedInstsExamined   3487215335                       # Number of squashed instructions iterated over during squash; mainly for profiling
system.switch_cpus_1.iq.iqSquashedInstsIssued     85628792                       # Number of squashed instructions issued
system.switch_cpus_1.iq.iqSquashedOperandsExamined   4804313696                       # Number of squashed operands that are examined and possibly removed from graph
system.switch_cpus_1.iq.issued_per_cycle::samples   6449718955                       # Number of insts issued each cycle
system.switch_cpus_1.iq.issued_per_cycle::mean     0.679847                       # Number of insts issued each cycle
system.switch_cpus_1.iq.issued_per_cycle::stdev     1.685933                       # Number of insts issued each cycle
system.switch_cpus_1.iq.issued_per_cycle::underflows            0      0.00%      0.00% # Number of insts issued each cycle
system.switch_cpus_1.iq.issued_per_cycle::0   5200841482     80.64%     80.64% # Number of insts issued each cycle
system.switch_cpus_1.iq.issued_per_cycle::1    320981554      4.98%     85.61% # Number of insts issued each cycle
system.switch_cpus_1.iq.issued_per_cycle::2    196098321      3.04%     88.65% # Number of insts issued each cycle
system.switch_cpus_1.iq.issued_per_cycle::3    159474358      2.47%     91.13% # Number of insts issued each cycle
system.switch_cpus_1.iq.issued_per_cycle::4    149850855      2.32%     93.45% # Number of insts issued each cycle
system.switch_cpus_1.iq.issued_per_cycle::5    140892725      2.18%     95.63% # Number of insts issued each cycle
system.switch_cpus_1.iq.issued_per_cycle::6    140517837      2.18%     97.81% # Number of insts issued each cycle
system.switch_cpus_1.iq.issued_per_cycle::7     82245307      1.28%     99.09% # Number of insts issued each cycle
system.switch_cpus_1.iq.issued_per_cycle::8     58816516      0.91%    100.00% # Number of insts issued each cycle
system.switch_cpus_1.iq.issued_per_cycle::overflows            0      0.00%    100.00% # Number of insts issued each cycle
system.switch_cpus_1.iq.issued_per_cycle::min_value            0                       # Number of insts issued each cycle
system.switch_cpus_1.iq.issued_per_cycle::max_value            8                       # Number of insts issued each cycle
system.switch_cpus_1.iq.issued_per_cycle::total   6449718955                       # Number of insts issued each cycle
system.switch_cpus_1.iq.rate                 0.679818                       # Inst issue rate
system.switch_cpus_1.iq.vec_alu_accesses            0                       # Number of vector alu accesses
system.switch_cpus_1.iq.vec_inst_queue_reads            0                       # Number of vector instruction queue reads
system.switch_cpus_1.iq.vec_inst_queue_wakeup_accesses            0                       # Number of vector instruction queue wakeup accesses
system.switch_cpus_1.iq.vec_inst_queue_writes            0                       # Number of vector instruction queue writes
system.switch_cpus_1.itb.rdAccesses                 0                       # TLB accesses on read requests
system.switch_cpus_1.itb.rdMisses                   0                       # TLB misses on read requests
system.switch_cpus_1.itb.wrAccesses         493873600                       # TLB accesses on write requests
system.switch_cpus_1.itb.wrMisses               14035                       # TLB misses on write requests
system.switch_cpus_1.memDep0.conflictingLoads     93731119                       # Number of conflicting loads.
system.switch_cpus_1.memDep0.conflictingStores     94909308                       # Number of conflicting stores.
system.switch_cpus_1.memDep0.insertedLoads    999093591                       # Number of loads inserted to the mem dependence unit.
system.switch_cpus_1.memDep0.insertedStores    273950361                       # Number of stores inserted to the mem dependence unit.
system.switch_cpus_1.misc_regfile_reads    2305077621                       # number of misc regfile reads
system.switch_cpus_1.numCycles             6449993977                       # number of cpu cycles simulated
system.switch_cpus_1.numWorkItemsCompleted            0                       # number of work items this cpu completed
system.switch_cpus_1.numWorkItemsStarted            0                       # number of work items this cpu started
system.switch_cpus_1.rename.BlockCycles    4487912232                       # Number of cycles rename is blocking
system.switch_cpus_1.rename.CommittedMaps   2122688750                       # Number of HB maps that are committed
system.switch_cpus_1.rename.IQFullEvents    374974637                       # Number of times rename has blocked due to IQ full
system.switch_cpus_1.rename.IdleCycles      344285569                       # Number of cycles rename is idle
system.switch_cpus_1.rename.LQFullEvents    486098746                       # Number of times rename has blocked due to LQ full
system.switch_cpus_1.rename.ROBFullEvents     52726955                       # Number of times rename has blocked due to ROB full
system.switch_cpus_1.rename.RenameLookups  15519244922                       # Number of register rename lookups that rename has made
system.switch_cpus_1.rename.RenamedInsts   6040409746                       # Number of instructions processed by rename
system.switch_cpus_1.rename.RenamedOperands   7081644230                       # Number of destination operands rename has renamed
system.switch_cpus_1.rename.RunCycles       727810044                       # Number of cycles rename is running
system.switch_cpus_1.rename.SQFullEvents     11134344                       # Number of times rename has blocked due to SQ full
system.switch_cpus_1.rename.SquashCycles     82577164                       # Number of cycles rename is squashing
system.switch_cpus_1.rename.UnblockCycles    807133940                       # Number of cycles rename is unblocking
system.switch_cpus_1.rename.UndoneMaps     4958955416                       # Number of HB maps that are undone due to squashing
system.switch_cpus_1.rename.int_rename_lookups   8425937470                       # Number of integer rename lookups
system.switch_cpus_1.rename.serializeStallCycles            0                       # count of cycles rename stalled for serializing inst
system.switch_cpus_1.rename.serializingInsts            0                       # count of serializing insts renamed
system.switch_cpus_1.rename.skidInsts       962565429                       # count of insts added to the skid buffer
system.switch_cpus_1.rename.tempSerializingInsts            0                       # count of temporary serializing insts renamed
system.switch_cpus_1.rob.rob_reads        11046078046                       # The number of ROB reads
system.switch_cpus_1.rob.rob_writes       11051835532                       # The number of ROB writes
system.switch_cpus_1.timesIdled                  2662                       # Number of times that the entire CPU went into an idle state and unscheduled itself
system.tol2bus.snoop_filter.hit_multi_requests           57                       # Number of requests hitting in the snoop filter with multiple (>1) holders of the requested data.
system.tol2bus.snoop_filter.hit_multi_snoops           11                       # Number of snoops hitting in the snoop filter with multiple (>1) holders of the requested data.
system.tol2bus.snoop_filter.hit_single_requests    110269329                       # Number of requests hitting in the snoop filter with a single holder of the requested data.
system.tol2bus.snoop_filter.hit_single_snoops      9960086                       # Number of snoops hitting in the snoop filter with a single holder of the requested data.
system.tol2bus.snoop_filter.tot_requests    214987053                       # Total number of requests made to the snoop filter.
system.tol2bus.snoop_filter.tot_snoops        9960097                       # Total number of snoops made to the snoop filter.
system.tol3bus.snoop_filter.hit_multi_requests            0                       # Number of requests hitting in the snoop filter with multiple (>1) holders of the requested data.
system.tol3bus.snoop_filter.hit_multi_snoops            0                       # Number of snoops hitting in the snoop filter with multiple (>1) holders of the requested data.
system.tol3bus.snoop_filter.hit_single_requests     74626298                       # Number of requests hitting in the snoop filter with a single holder of the requested data.
system.tol3bus.snoop_filter.hit_single_snoops     44297644                       # Number of snoops hitting in the snoop filter with a single holder of the requested data.
system.tol3bus.snoop_filter.tot_requests    149251285                       # Total number of requests made to the snoop filter.
system.tol3bus.snoop_filter.tot_snoops       44297644                       # Total number of snoops made to the snoop filter.
system.membus.trans_dist::ReadResp           54997654                       # Transaction distribution
system.membus.trans_dist::WritebackDirty     11468746                       # Transaction distribution
system.membus.trans_dist::CleanEvict         44276262                       # Transaction distribution
system.membus.trans_dist::ReadExReq            747834                       # Transaction distribution
system.membus.trans_dist::ReadExResp           747834                       # Transaction distribution
system.membus.trans_dist::ReadSharedReq      54997654                       # Transaction distribution
system.membus.pkt_count_system.l3.mem_side::system.mem_ctrls.port    167235984                       # Packet count per connected master and slave (bytes)
system.membus.pkt_count_system.l3.mem_side::total    167235984                       # Packet count per connected master and slave (bytes)
system.membus.pkt_count::total              167235984                       # Packet count per connected master and slave (bytes)
system.membus.pkt_size_system.l3.mem_side::system.mem_ctrls.port   4301710976                       # Cumulative packet size per connected master and slave (bytes)
system.membus.pkt_size_system.l3.mem_side::total   4301710976                       # Cumulative packet size per connected master and slave (bytes)
system.membus.pkt_size::total              4301710976                       # Cumulative packet size per connected master and slave (bytes)
system.membus.snoops                                0                       # Total snoops (count)
system.membus.snoopTraffic                          0                       # Total snoop traffic (bytes)
system.membus.snoop_fanout::samples          55745488                       # Request fanout histogram
system.membus.snoop_fanout::mean                    0                       # Request fanout histogram
system.membus.snoop_fanout::stdev                   0                       # Request fanout histogram
system.membus.snoop_fanout::underflows              0      0.00%      0.00% # Request fanout histogram
system.membus.snoop_fanout::0                55745488    100.00%    100.00% # Request fanout histogram
system.membus.snoop_fanout::1                       0      0.00%    100.00% # Request fanout histogram
system.membus.snoop_fanout::overflows               0      0.00%    100.00% # Request fanout histogram
system.membus.snoop_fanout::min_value               0                       # Request fanout histogram
system.membus.snoop_fanout::max_value               0                       # Request fanout histogram
system.membus.snoop_fanout::total            55745488                       # Request fanout histogram
system.membus.reqLayer2.occupancy        172937291500                       # Layer occupancy (ticks)
system.membus.reqLayer2.utilization               5.4                       # Layer utilization (%)
system.membus.respLayer1.occupancy       306142805500                       # Layer occupancy (ticks)
system.membus.respLayer1.utilization              9.5                       # Layer utilization (%)
system.membus.power_state.pwrStateResidencyTicks::UNDEFINED 4984707192000                       # Cumulative time (in ticks) in various power states
system.switch_cpus_1.dtb.walker.power_state.pwrStateResidencyTicks::UNDEFINED 4984707192000                       # Cumulative time (in ticks) in various power states
system.switch_cpus_1.itb.walker.power_state.pwrStateResidencyTicks::UNDEFINED 4984707192000                       # Cumulative time (in ticks) in various power states
system.switch_cpus_1.power_state.pwrStateResidencyTicks::OFF 4984707192000                       # Cumulative time (in ticks) in various power states
system.switch_cpus.dtb.walker.power_state.pwrStateResidencyTicks::UNDEFINED 4984707192000                       # Cumulative time (in ticks) in various power states
system.switch_cpus.itb.walker.power_state.pwrStateResidencyTicks::UNDEFINED 4984707192000                       # Cumulative time (in ticks) in various power states
system.switch_cpus.power_state.numTransitions            1                       # Number of power state transitions
system.switch_cpus.power_state.pwrStateResidencyTicks::OFF 4984707192000                       # Cumulative time (in ticks) in various power states
system.tol2bus.trans_dist::ReadResp         100348098                       # Transaction distribution
system.tol2bus.trans_dist::WritebackDirty     63566305                       # Transaction distribution
system.tol2bus.trans_dist::WritebackClean            3                       # Transaction distribution
system.tol2bus.trans_dist::CleanEvict       160113529                       # Transaction distribution
system.tol2bus.trans_dist::UpgradeReq         5551606                       # Transaction distribution
system.tol2bus.trans_dist::UpgradeResp        5551606                       # Transaction distribution
system.tol2bus.trans_dist::ReadExReq          4369625                       # Transaction distribution
system.tol2bus.trans_dist::ReadExResp         4369625                       # Transaction distribution
system.tol2bus.trans_dist::ReadCleanReq             3                       # Transaction distribution
system.tol2bus.trans_dist::ReadSharedReq    100348096                       # Transaction distribution
system.tol2bus.pkt_count_system.cpu.icache.mem_side::system.l2.cpu_side            9                       # Packet count per connected master and slave (bytes)
system.tol2bus.pkt_count_system.cpu.dcache.mem_side::system.l2.cpu_side    325256373                       # Packet count per connected master and slave (bytes)
system.tol2bus.pkt_count::total             325256382                       # Packet count per connected master and slave (bytes)
system.tol2bus.pkt_size_system.cpu.icache.mem_side::system.l2.cpu_side          384                       # Cumulative packet size per connected master and slave (bytes)
system.tol2bus.pkt_size_system.cpu.dcache.mem_side::system.l2.cpu_side   9002241728                       # Cumulative packet size per connected master and slave (bytes)
system.tol2bus.pkt_size::total             9002242112                       # Cumulative packet size per connected master and slave (bytes)
system.tol2bus.snoops                       118962114                       # Total snoops (count)
system.tol2bus.snoopTraffic                1767935872                       # Total snoop traffic (bytes)
system.tol2bus.snoop_fanout::samples        229231444                       # Request fanout histogram
system.tol2bus.snoop_fanout::mean            0.043450                       # Request fanout histogram
system.tol2bus.snoop_fanout::stdev           0.203869                       # Request fanout histogram
system.tol2bus.snoop_fanout::underflows             0      0.00%      0.00% # Request fanout histogram
system.tol2bus.snoop_fanout::0              219271290     95.65%     95.65% # Request fanout histogram
system.tol2bus.snoop_fanout::1                9960143      4.35%    100.00% # Request fanout histogram
system.tol2bus.snoop_fanout::2                     11      0.00%    100.00% # Request fanout histogram
system.tol2bus.snoop_fanout::3                      0      0.00%    100.00% # Request fanout histogram
system.tol2bus.snoop_fanout::4                      0      0.00%    100.00% # Request fanout histogram
system.tol2bus.snoop_fanout::overflows              0      0.00%    100.00% # Request fanout histogram
system.tol2bus.snoop_fanout::min_value              0                       # Request fanout histogram
system.tol2bus.snoop_fanout::max_value              2                       # Request fanout histogram
system.tol2bus.snoop_fanout::total          229231444                       # Request fanout histogram
system.tol2bus.reqLayer0.occupancy       143435836500                       # Layer occupancy (ticks)
system.tol2bus.reqLayer0.utilization              4.4                       # Layer utilization (%)
system.tol2bus.respLayer1.occupancy      159852383000                       # Layer occupancy (ticks)
system.tol2bus.respLayer1.utilization             5.0                       # Layer utilization (%)
system.tol2bus.respLayer0.occupancy              4500                       # Layer occupancy (ticks)
system.tol2bus.respLayer0.utilization             0.0                       # Layer utilization (%)
system.tol2bus.power_state.pwrStateResidencyTicks::UNDEFINED 4984707192000                       # Cumulative time (in ticks) in various power states
system.voltage_domain.voltage                       1                       # Voltage in Volts
system.clk_domain.clock                          1000                       # Clock period in ticks
system.l2.demand_hits::.switch_cpus_1.data     30092680                       # number of demand (read+write) hits
system.l2.demand_hits::total                 30092680                       # number of demand (read+write) hits
system.l2.overall_hits::.switch_cpus_1.data     30092680                       # number of overall hits
system.l2.overall_hits::total                30092680                       # number of overall hits
system.l2.demand_misses::.switch_cpus_1.inst            3                       # number of demand (read+write) misses
system.l2.demand_misses::.switch_cpus_1.data     74625041                       # number of demand (read+write) misses
system.l2.demand_misses::total               74625044                       # number of demand (read+write) misses
system.l2.overall_misses::.switch_cpus_1.inst            3                       # number of overall misses
system.l2.overall_misses::.switch_cpus_1.data     74625041                       # number of overall misses
system.l2.overall_misses::total              74625044                       # number of overall misses
system.l2.demand_miss_latency::.switch_cpus_1.inst       297500                       # number of demand (read+write) miss cycles
system.l2.demand_miss_latency::.switch_cpus_1.data 6481381102000                       # number of demand (read+write) miss cycles
system.l2.demand_miss_latency::total     6481381399500                       # number of demand (read+write) miss cycles
system.l2.overall_miss_latency::.switch_cpus_1.inst       297500                       # number of overall miss cycles
system.l2.overall_miss_latency::.switch_cpus_1.data 6481381102000                       # number of overall miss cycles
system.l2.overall_miss_latency::total    6481381399500                       # number of overall miss cycles
system.l2.demand_accesses::.switch_cpus_1.inst            3                       # number of demand (read+write) accesses
system.l2.demand_accesses::.switch_cpus_1.data    104717721                       # number of demand (read+write) accesses
system.l2.demand_accesses::total            104717724                       # number of demand (read+write) accesses
system.l2.overall_accesses::.switch_cpus_1.inst            3                       # number of overall (read+write) accesses
system.l2.overall_accesses::.switch_cpus_1.data    104717721                       # number of overall (read+write) accesses
system.l2.overall_accesses::total           104717724                       # number of overall (read+write) accesses
system.l2.demand_miss_rate::.switch_cpus_1.inst            1                       # miss rate for demand accesses
system.l2.demand_miss_rate::.switch_cpus_1.data     0.712630                       # miss rate for demand accesses
system.l2.demand_miss_rate::total            0.712630                       # miss rate for demand accesses
system.l2.overall_miss_rate::.switch_cpus_1.inst            1                       # miss rate for overall accesses
system.l2.overall_miss_rate::.switch_cpus_1.data     0.712630                       # miss rate for overall accesses
system.l2.overall_miss_rate::total           0.712630                       # miss rate for overall accesses
system.l2.demand_avg_miss_latency::.switch_cpus_1.inst 99166.666667                       # average overall miss latency
system.l2.demand_avg_miss_latency::.switch_cpus_1.data 86852.630366                       # average overall miss latency
system.l2.demand_avg_miss_latency::total 86852.630861                       # average overall miss latency
system.l2.overall_avg_miss_latency::.switch_cpus_1.inst 99166.666667                       # average overall miss latency
[...]
system.cpu.dcache.demand_accesses::.switch_cpus.data     43513985                       # number of demand (read+write) accesses
system.cpu.dcache.demand_accesses::.switch_cpus_1.data    777069768                       # number of demand (read+write) accesses
system.cpu.dcache.demand_accesses::total   1211154917                       # number of demand (read+write) accesses
system.cpu.dcache.overall_accesses::.cpu.data    390571164                       # number of overall (read+write) accesses
system.cpu.dcache.overall_accesses::.switch_cpus.data     43513985                       # number of overall (read+write) accesses
system.cpu.dcache.overall_accesses::.switch_cpus_1.data    777069768                       # number of overall (read+write) accesses
system.cpu.dcache.overall_accesses::total   1211154917                       # number of overall (read+write) accesses
system.cpu.dcache.demand_miss_rate::.cpu.data     0.139202                       # miss rate for demand accesses
system.cpu.dcache.demand_miss_rate::.switch_cpus.data     0.248698                       # miss rate for demand accesses
system.cpu.dcache.demand_miss_rate::.switch_cpus_1.data     0.343289                       # miss rate for demand accesses
system.cpu.dcache.demand_miss_rate::total     0.274077                       # miss rate for demand accesses
system.cpu.dcache.overall_miss_rate::.cpu.data     0.139202                       # miss rate for overall accesses
system.cpu.dcache.overall_miss_rate::.switch_cpus.data     0.248698                       # miss rate for overall accesses
system.cpu.dcache.overall_miss_rate::.switch_cpus_1.data     0.343289                       # miss rate for overall accesses
system.cpu.dcache.overall_miss_rate::total     0.274077                       # miss rate for overall accesses
system.cpu.dcache.demand_avg_miss_latency::.switch_cpus.data 57348.370897                       # average overall miss latency
system.cpu.dcache.demand_avg_miss_latency::.switch_cpus_1.data 64062.108375                       # average overall miss latency
system.cpu.dcache.demand_avg_miss_latency::total 53350.814278                       # average overall miss latency
system.cpu.dcache.overall_avg_miss_latency::.switch_cpus.data 57348.370897                       # average overall miss latency
system.cpu.dcache.overall_avg_miss_latency::.switch_cpus_1.data 64062.108375                       # average overall miss latency
system.cpu.dcache.overall_avg_miss_latency::total 53350.814278                       # average overall miss latency
system.cpu.dcache.blocked_cycles::no_mshrs   1294295935                       # number of cycles access was blocked
system.cpu.dcache.blocked_cycles::no_targets      5233684                       # number of cycles access was blocked
system.cpu.dcache.blocked::no_mshrs          39137046                       # number of cycles access was blocked
system.cpu.dcache.blocked::no_targets           51226                       # number of cycles access was blocked
system.cpu.dcache.avg_blocked_cycles::no_mshrs    33.070864                       # average number of cycles each access was blocked
system.cpu.dcache.avg_blocked_cycles::no_targets   102.168508                       # average number of cycles each access was blocked
system.cpu.dcache.writebacks::.writebacks     61822707                       # number of writebacks
system.cpu.dcache.writebacks::total          61822707                       # number of writebacks
system.cpu.dcache.demand_mshr_hits::.switch_cpus_1.data    156490998                       # number of demand (read+write) MSHR hits
system.cpu.dcache.demand_mshr_hits::total    156490998                       # number of demand (read+write) MSHR hits
system.cpu.dcache.overall_mshr_hits::.switch_cpus_1.data    156490998                       # number of overall MSHR hits
system.cpu.dcache.overall_mshr_hits::total    156490998                       # number of overall MSHR hits
system.cpu.dcache.demand_mshr_misses::.switch_cpus.data     10821844                       # number of demand (read+write) MSHR misses
system.cpu.dcache.demand_mshr_misses::.switch_cpus_1.data    110268332                       # number of demand (read+write) MSHR misses
system.cpu.dcache.demand_mshr_misses::total    121090176                       # number of demand (read+write) MSHR misses
system.cpu.dcache.overall_mshr_misses::.switch_cpus.data     10821844                       # number of overall MSHR misses
system.cpu.dcache.overall_mshr_misses::.switch_cpus_1.data    110268332                       # number of overall MSHR misses
system.cpu.dcache.overall_mshr_misses::total    121090176                       # number of overall MSHR misses
system.cpu.dcache.demand_mshr_miss_latency::.switch_cpus.data 615204201500                       # number of demand (read+write) MSHR miss cycles
system.cpu.dcache.demand_mshr_miss_latency::.switch_cpus_1.data 6806536823966                       # number of demand (read+write) MSHR miss cycles
system.cpu.dcache.demand_mshr_miss_latency::total 7421741025466                       # number of demand (read+write) MSHR miss cycles
system.cpu.dcache.overall_mshr_miss_latency::.switch_cpus.data 615204201500                       # number of overall MSHR miss cycles
system.cpu.dcache.overall_mshr_miss_latency::.switch_cpus_1.data 6806536823966                       # number of overall MSHR miss cycles
system.cpu.dcache.overall_mshr_miss_latency::total 7421741025466                       # number of overall MSHR miss cycles
system.cpu.dcache.demand_mshr_miss_rate::.switch_cpus.data     0.248698                       # mshr miss rate for demand accesses
system.cpu.dcache.demand_mshr_miss_rate::.switch_cpus_1.data     0.141903                       # mshr miss rate for demand accesses
system.cpu.dcache.demand_mshr_miss_rate::total     0.099979                       # mshr miss rate for demand accesses
system.cpu.dcache.overall_mshr_miss_rate::.switch_cpus.data     0.248698                       # mshr miss rate for overall accesses
system.cpu.dcache.overall_mshr_miss_rate::.switch_cpus_1.data     0.141903                       # mshr miss rate for overall accesses
system.cpu.dcache.overall_mshr_miss_rate::total     0.099979                       # mshr miss rate for overall accesses
system.cpu.dcache.demand_avg_mshr_miss_latency::.switch_cpus.data 56848.370897                       # average overall mshr miss latency
system.cpu.dcache.demand_avg_mshr_miss_latency::.switch_cpus_1.data 61727.031692                       # average overall mshr miss latency
system.cpu.dcache.demand_avg_mshr_miss_latency::total 61291.025173                       # average overall mshr miss latency
system.cpu.dcache.overall_avg_mshr_miss_latency::.switch_cpus.data 56848.370897                       # average overall mshr miss latency
system.cpu.dcache.overall_avg_mshr_miss_latency::.switch_cpus_1.data 61727.031692                       # average overall mshr miss latency
system.cpu.dcache.overall_avg_mshr_miss_latency::total 61291.025173                       # average overall mshr miss latency
system.cpu.dcache.replacements              169285359                       # number of replacements
system.cpu.dcache.ReadReq_hits::.cpu.data    234488627                       # number of ReadReq hits
system.cpu.dcache.ReadReq_hits::.switch_cpus.data     26813871                       # number of ReadReq hits
system.cpu.dcache.ReadReq_hits::.switch_cpus_1.data    449240213                       # number of ReadReq hits
system.cpu.dcache.ReadReq_hits::total       710542711                       # number of ReadReq hits
system.cpu.dcache.ReadReq_misses::.cpu.data     52363197                       # number of ReadReq misses
system.cpu.dcache.ReadReq_misses::.switch_cpus.data      9821521                       # number of ReadReq misses
system.cpu.dcache.ReadReq_misses::.switch_cpus_1.data    256830779                       # number of ReadReq misses
system.cpu.dcache.ReadReq_misses::total     319015497                       # number of ReadReq misses
system.cpu.dcache.ReadReq_miss_latency::.switch_cpus.data 608101770500                       # number of ReadReq miss cycles
system.cpu.dcache.ReadReq_miss_latency::.switch_cpus_1.data 16940697886000                       # number of ReadReq miss cycles
system.cpu.dcache.ReadReq_miss_latency::total 17548799656500                       # number of ReadReq miss cycles
system.cpu.dcache.ReadReq_accesses::.cpu.data    286851824                       # number of ReadReq accesses(hits+misses)
system.cpu.dcache.ReadReq_accesses::.switch_cpus.data     36635392                       # number of ReadReq accesses(hits+misses)
system.cpu.dcache.ReadReq_accesses::.switch_cpus_1.data    706070992                       # number of ReadReq accesses(hits+misses)
system.cpu.dcache.ReadReq_accesses::total   1029558208                       # number of ReadReq accesses(hits+misses)
system.cpu.dcache.ReadReq_miss_rate::.cpu.data     0.182544                       # miss rate for ReadReq accesses
system.cpu.dcache.ReadReq_miss_rate::.switch_cpus.data     0.268088                       # miss rate for ReadReq accesses
system.cpu.dcache.ReadReq_miss_rate::.switch_cpus_1.data     0.363746                       # miss rate for ReadReq accesses
system.cpu.dcache.ReadReq_miss_rate::total     0.309857                       # miss rate for ReadReq accesses
system.cpu.dcache.ReadReq_avg_miss_latency::.switch_cpus.data 61915.233954                       # average ReadReq miss latency
system.cpu.dcache.ReadReq_avg_miss_latency::.switch_cpus_1.data 65960.543950                       # average ReadReq miss latency
system.cpu.dcache.ReadReq_avg_miss_latency::total 55009.238804                       # average ReadReq miss latency
system.cpu.dcache.ReadReq_mshr_hits::.switch_cpus_1.data    156479055                       # number of ReadReq MSHR hits
system.cpu.dcache.ReadReq_mshr_hits::total    156479055                       # number of ReadReq MSHR hits
system.cpu.dcache.ReadReq_mshr_misses::.switch_cpus.data      9821521                       # number of ReadReq MSHR misses
system.cpu.dcache.ReadReq_mshr_misses::.switch_cpus_1.data    100351724                       # number of ReadReq MSHR misses
system.cpu.dcache.ReadReq_mshr_misses::total    110173245                       # number of ReadReq MSHR misses
system.cpu.dcache.ReadReq_mshr_miss_latency::.switch_cpus.data 603191010000                       # number of ReadReq MSHR miss cycles
system.cpu.dcache.ReadReq_mshr_miss_latency::.switch_cpus_1.data 6663259074500                       # number of ReadReq MSHR miss cycles
system.cpu.dcache.ReadReq_mshr_miss_latency::total 7266450084500                       # number of ReadReq MSHR miss cycles
system.cpu.dcache.ReadReq_mshr_miss_rate::.switch_cpus.data     0.268088                       # mshr miss rate for ReadReq accesses
system.cpu.dcache.ReadReq_mshr_miss_rate::.switch_cpus_1.data     0.142127                       # mshr miss rate for ReadReq accesses
system.cpu.dcache.ReadReq_mshr_miss_rate::total     0.107010                       # mshr miss rate for ReadReq accesses
system.cpu.dcache.ReadReq_avg_mshr_miss_latency::.switch_cpus.data 61415.233954                       # average ReadReq mshr miss latency
system.cpu.dcache.ReadReq_avg_mshr_miss_latency::.switch_cpus_1.data 66399.049353                       # average ReadReq mshr miss latency
system.cpu.dcache.ReadReq_avg_mshr_miss_latency::total 65954.761381                       # average ReadReq mshr miss latency
system.cpu.dcache.WriteReq_hits::.cpu.data    101714134                       # number of WriteReq hits
system.cpu.dcache.WriteReq_hits::.switch_cpus.data      5878270                       # number of WriteReq hits
system.cpu.dcache.WriteReq_hits::.switch_cpus_1.data     61070225                       # number of WriteReq hits
system.cpu.dcache.WriteReq_hits::total      168662629                       # number of WriteReq hits
system.cpu.dcache.WriteReq_misses::.cpu.data      2005206                       # number of WriteReq misses
system.cpu.dcache.WriteReq_misses::.switch_cpus.data      1000323                       # number of WriteReq misses
system.cpu.dcache.WriteReq_misses::.switch_cpus_1.data      9928551                       # number of WriteReq misses
system.cpu.dcache.WriteReq_misses::total     12934080                       # number of WriteReq misses
system.cpu.dcache.WriteReq_miss_latency::.switch_cpus.data  12513353000                       # number of WriteReq miss cycles
system.cpu.dcache.WriteReq_miss_latency::.switch_cpus_1.data 148467222616                       # number of WriteReq miss cycles
system.cpu.dcache.WriteReq_miss_latency::total 160980575616                       # number of WriteReq miss cycles
system.cpu.dcache.WriteReq_accesses::.cpu.data    103719340                       # number of WriteReq accesses(hits+misses)
system.cpu.dcache.WriteReq_accesses::.switch_cpus.data      6878593                       # number of WriteReq accesses(hits+misses)
system.cpu.dcache.WriteReq_accesses::.switch_cpus_1.data     70998776                       # number of WriteReq accesses(hits+misses)
system.cpu.dcache.WriteReq_accesses::total    181596709                       # number of WriteReq accesses(hits+misses)
system.cpu.dcache.WriteReq_miss_rate::.cpu.data     0.019333                       # miss rate for WriteReq accesses
system.cpu.dcache.WriteReq_miss_rate::.switch_cpus.data     0.145426                       # miss rate for WriteReq accesses
system.cpu.dcache.WriteReq_miss_rate::.switch_cpus_1.data     0.139841                       # miss rate for WriteReq accesses
system.cpu.dcache.WriteReq_miss_rate::total     0.071224                       # miss rate for WriteReq accesses
system.cpu.dcache.WriteReq_avg_miss_latency::.switch_cpus.data 12509.312492                       # average WriteReq miss latency
system.cpu.dcache.WriteReq_avg_miss_latency::.switch_cpus_1.data 14953.563981                       # average WriteReq miss latency
system.cpu.dcache.WriteReq_avg_miss_latency::total 12446.233177                       # average WriteReq miss latency
system.cpu.dcache.WriteReq_mshr_hits::.switch_cpus_1.data        11943                       # number of WriteReq MSHR hits
system.cpu.dcache.WriteReq_mshr_hits::total        11943                       # number of WriteReq MSHR hits
system.cpu.dcache.WriteReq_mshr_misses::.switch_cpus.data      1000323                       # number of WriteReq MSHR misses
system.cpu.dcache.WriteReq_mshr_misses::.switch_cpus_1.data      9916608                       # number of WriteReq MSHR misses
system.cpu.dcache.WriteReq_mshr_misses::total     10916931                       # number of WriteReq MSHR misses
system.cpu.dcache.WriteReq_mshr_miss_latency::.switch_cpus.data  12013191500                       # number of WriteReq MSHR miss cycles
system.cpu.dcache.WriteReq_mshr_miss_latency::.switch_cpus_1.data 143277749466                       # number of WriteReq MSHR miss cycles
system.cpu.dcache.WriteReq_mshr_miss_latency::total 155290940966                       # number of WriteReq MSHR miss cycles
system.cpu.dcache.WriteReq_mshr_miss_rate::.switch_cpus.data     0.145426                       # mshr miss rate for WriteReq accesses
system.cpu.dcache.WriteReq_mshr_miss_rate::.switch_cpus_1.data     0.139673                       # mshr miss rate for WriteReq accesses
system.cpu.dcache.WriteReq_mshr_miss_rate::total     0.060116                       # mshr miss rate for WriteReq accesses
system.cpu.dcache.WriteReq_avg_mshr_miss_latency::.switch_cpus.data 12009.312492                       # average WriteReq mshr miss latency
system.cpu.dcache.WriteReq_avg_mshr_miss_latency::.switch_cpus_1.data 14448.261892                       # average WriteReq mshr miss latency
system.cpu.dcache.WriteReq_avg_mshr_miss_latency::total 14224.779928                       # average WriteReq mshr miss latency
system.cpu.dcache.power_state.pwrStateResidencyTicks::UNDEFINED 4984707192000                       # Cumulative time (in ticks) in various power states
system.cpu.dcache.tags.tagsinuse           511.998737                       # Cycle average of tags in use
system.cpu.dcache.tags.total_refs          1055494032                       # Total number of references to valid blocks.
system.cpu.dcache.tags.sampled_refs         169285871                       # Sample count of references to valid blocks.
system.cpu.dcache.tags.avg_refs              6.234980                       # Average number of references to valid blocks.
system.cpu.dcache.tags.warmup_cycle              1500                       # Cycle when the warmup percentage was hit.
system.cpu.dcache.tags.occ_blocks::.cpu.data   108.952191                       # Average occupied blocks per requestor
system.cpu.dcache.tags.occ_blocks::.switch_cpus.data    71.795778                       # Average occupied blocks per requestor
system.cpu.dcache.tags.occ_blocks::.switch_cpus_1.data   331.250768                       # Average occupied blocks per requestor
system.cpu.dcache.tags.occ_percent::.cpu.data     0.212797                       # Average percentage of cache occupancy
system.cpu.dcache.tags.occ_percent::.switch_cpus.data     0.140226                       # Average percentage of cache occupancy
system.cpu.dcache.tags.occ_percent::.switch_cpus_1.data     0.646974                       # Average percentage of cache occupancy
system.cpu.dcache.tags.occ_percent::total     0.999998                       # Average percentage of cache occupancy
system.cpu.dcache.tags.occ_task_id_blocks::1024          512                       # Occupied blocks per task id
system.cpu.dcache.tags.age_task_id_blocks_1024::0          176                       # Occupied blocks per task id
system.cpu.dcache.tags.age_task_id_blocks_1024::1          324                       # Occupied blocks per task id
system.cpu.dcache.tags.age_task_id_blocks_1024::2            9                       # Occupied blocks per task id
system.cpu.dcache.tags.age_task_id_blocks_1024::3            3                       # Occupied blocks per task id
system.cpu.dcache.tags.occ_task_id_percent::1024            1                       # Percentage of cache occupancy per task id
system.cpu.dcache.tags.tag_accesses        5013905539                       # Number of tag accesses
system.cpu.dcache.tags.data_accesses       5013905539                       # Number of data accesses
system.cpu.dcache.tags.cache_friendly               0                       # Number of cache friendly accesses
system.cpu.dcache.tags.cache_averse        1055494032                       # Number of cache averse accesses
system.cpu.dcache.tags.cache_friendly_victims            0                       # Number of cache friendly victims
system.cpu.dcache.tags.cache_averse_victims    169285871                       # Number of cache averse victims
system.cpu.dcache.tags.OPT_hits                     0                       # Number of OPT hits
system.cpu.dcache.tags.OPT_misses                   0                       # Number of OPT misses
system.cpu.dcache.tags.OPT_nan             1211154917                       # Number of OPT nan
system.cpu.dcache.tags.power_state.pwrStateResidencyTicks::UNDEFINED 4984707192000                       # Cumulative time (in ticks) in various power states
system.cpu.power_state.numTransitions               2                       # Number of power state transitions
system.cpu.power_state.pwrStateResidencyTicks::ON 1060722694500                       # Cumulative time (in ticks) in various power states
system.cpu.power_state.pwrStateResidencyTicks::OFF 3923984497500                       # Cumulative time (in ticks) in various power states

---------- End Simulation Statistics   ----------
