
---------- Begin Simulation Statistics ----------
final_tick                               2358767059000                       # Number of ticks from beginning of simulation (restored from checkpoints and never reset)
host_inst_rate                                 277186                       # Simulator instruction rate (inst/s)
host_mem_usage                                 815612                       # Number of bytes of host memory used
host_op_rate                                   702459                       # Simulator op (including micro ops) rate (op/s)
host_seconds                                  7576.14                       # Real time elapsed on the host
host_tick_rate                              122828457                       # Simulator tick rate (ticks/s)
sim_freq                                 1000000000000                       # Frequency of simulated ticks
sim_insts                                  2100000005                       # Number of instructions simulated
sim_ops                                    5321931845                       # Number of ops (including micro ops) simulated
sim_seconds                                  0.930566                       # Number of seconds simulated
sim_ticks                                930566155000                       # Number of ticks simulated
system.cpu.committedInsts                           0                       # Number of instructions committed
system.cpu.committedOps                             0                       # Number of ops (including micro ops) committed
system.cpu.dtb.rdAccesses                           0                       # TLB accesses on read requests
system.cpu.dtb.rdMisses                             0                       # TLB misses on read requests
system.cpu.dtb.wrAccesses                           0                       # TLB accesses on write requests
system.cpu.dtb.wrMisses                             0                       # TLB misses on write requests
system.cpu.idle_fraction                            0                       # Percentage of idle cycles
system.cpu.itb.rdAccesses                           0                       # TLB accesses on read requests
system.cpu.itb.rdMisses                             0                       # TLB misses on read requests
system.cpu.itb.wrAccesses                           0                       # TLB accesses on write requests
system.cpu.itb.wrMisses                             0                       # TLB misses on write requests
system.cpu.not_idle_fraction                        1                       # Percentage of non-idle cycles
system.cpu.numCycles                                0                       # number of cpu cycles simulated
system.cpu.numWorkItemsCompleted                    0                       # number of work items this cpu completed
system.cpu.numWorkItemsStarted                      0                       # number of work items this cpu started
system.cpu.num_busy_cycles                          0                       # Number of busy cycles
system.cpu.num_conditional_control_insts            0                       # number of instructions that are conditional controls
system.cpu.num_fp_alu_accesses                      0                       # Number of float alu accesses
system.cpu.num_fp_insts                             0                       # number of float instructions
system.cpu.num_fp_register_reads                    0                       # number of times the floating registers were read
system.cpu.num_fp_register_writes                   0                       # number of times the floating registers were written
system.cpu.num_func_calls                           0                       # number of times a function call or return occured
system.cpu.num_idle_cycles                          0                       # Number of idle cycles
system.cpu.num_int_alu_accesses                     0                       # Number of integer alu accesses
system.cpu.num_int_insts                            0                       # number of integer instructions
system.cpu.num_int_register_reads                   0                       # number of times the integer registers were read
system.cpu.num_int_register_writes                  0                       # number of times the integer registers were written
system.cpu.num_load_insts                           0                       # Number of load instructions
system.cpu.num_mem_refs                             0                       # number of memory refs
system.cpu.num_store_insts                          0                       # Number of store instructions
system.cpu.num_vec_alu_accesses                     0                       # Number of vector alu accesses
system.cpu.num_vec_insts                            0                       # number of vector instructions
system.cpu.num_vec_register_reads                   0                       # number of times the vector registers were read
system.cpu.num_vec_register_writes                  0                       # number of times the vector registers were written
system.cpu.op_class::No_OpClass                     0                       # Class of executed instruction
system.cpu.op_class::IntAlu                         0                       # Class of executed instruction
system.cpu.op_class::IntMult                        0                       # Class of executed instruction
system.cpu.op_class::IntDiv                         0                       # Class of executed instruction
system.cpu.op_class::FloatAdd                       0                       # Class of executed instruction
system.cpu.op_class::FloatCmp                       0                       # Class of executed instruction
system.cpu.op_class::FloatCvt                       0                       # Class of executed instruction
system.cpu.op_class::FloatMult                      0                       # Class of executed instruction
system.cpu.op_class::FloatMultAcc                   0                       # Class of executed instruction
system.cpu.op_class::FloatDiv                       0                       # Class of executed instruction
system.cpu.op_class::FloatMisc                      0                       # Class of executed instruction
system.cpu.op_class::FloatSqrt                      0                       # Class of executed instruction
system.cpu.op_class::SimdAdd                        0                       # Class of executed instruction
system.cpu.op_class::SimdAddAcc                     0                       # Class of executed instruction
system.cpu.op_class::SimdAlu                        0                       # Class of executed instruction
system.cpu.op_class::SimdCmp                        0                       # Class of executed instruction
system.cpu.op_class::SimdCvt                        0                       # Class of executed instruction
system.cpu.op_class::SimdMisc                       0                       # Class of executed instruction
system.cpu.op_class::SimdMult                       0                       # Class of executed instruction
system.cpu.op_class::SimdMultAcc                    0                       # Class of executed instruction
system.cpu.op_class::SimdShift                      0                       # Class of executed instruction
system.cpu.op_class::SimdShiftAcc                   0                       # Class of executed instruction
system.cpu.op_class::SimdDiv                        0                       # Class of executed instruction
system.cpu.op_class::SimdSqrt                       0                       # Class of executed instruction
system.cpu.op_class::SimdFloatAdd                   0                       # Class of executed instruction
system.cpu.op_class::SimdFloatAlu                   0                       # Class of executed instruction
system.cpu.op_class::SimdFloatCmp                   0                       # Class of executed instruction
system.cpu.op_class::SimdFloatCvt                   0                       # Class of executed instruction
system.cpu.op_class::SimdFloatDiv                   0                       # Class of executed instruction
system.cpu.op_class::SimdFloatMisc                  0                       # Class of executed instruction
system.cpu.op_class::SimdFloatMult                  0                       # Class of executed instruction
system.cpu.op_class::SimdFloatMultAcc               0                       # Class of executed instruction
system.cpu.op_class::SimdFloatSqrt                  0                       # Class of executed instruction
system.cpu.op_class::SimdReduceAdd                  0                       # Class of executed instruction
system.cpu.op_class::SimdReduceAlu                  0                       # Class of executed instruction
system.cpu.op_class::SimdReduceCmp                  0                       # Class of executed instruction
system.cpu.op_class::SimdFloatReduceAdd             0                       # Class of executed instruction
system.cpu.op_class::SimdFloatReduceCmp             0                       # Class of executed instruction
system.cpu.op_class::SimdAes                        0                       # Class of executed instruction
system.cpu.op_class::SimdAesMix                     0                       # Class of executed instruction
system.cpu.op_class::SimdSha1Hash                   0                       # Class of executed instruction
system.cpu.op_class::SimdSha1Hash2                  0                       # Class of executed instruction
system.cpu.op_class::SimdSha256Hash                 0                       # Class of executed instruction
system.cpu.op_class::SimdSha256Hash2                0                       # Class of executed instruction
system.cpu.op_class::SimdShaSigma2                  0                       # Class of executed instruction
system.cpu.op_class::SimdShaSigma3                  0                       # Class of executed instruction
system.cpu.op_class::SimdPredAlu                    0                       # Class of executed instruction
system.cpu.op_class::MemRead                        0                       # Class of executed instruction
system.cpu.op_class::MemWrite                       0                       # Class of executed instruction
system.cpu.op_class::FloatMemRead                   0                       # Class of executed instruction
system.cpu.op_class::FloatMemWrite                  0                       # Class of executed instruction
system.cpu.op_class::IprAccess                      0                       # Class of executed instruction
system.cpu.op_class::InstPrefetch                   0                       # Class of executed instruction
system.cpu.op_class::total                          0                       # Class of executed instruction
system.cpu.workload.numSyscalls                  1161                       # Number of system calls
system.membus.snoop_filter.hit_multi_requests            0                       # Number of requests hitting in the snoop filter with multiple (>1) holders of the requested data.
system.membus.snoop_filter.hit_multi_snoops            0                       # Number of snoops hitting in the snoop filter with multiple (>1) holders of the requested data.
system.membus.snoop_filter.hit_single_requests       675855                       # Number of requests hitting in the snoop filter with a single holder of the requested data.
system.membus.snoop_filter.hit_single_snoops            0                       # Number of snoops hitting in the snoop filter with a single holder of the requested data.
system.membus.snoop_filter.tot_requests       1351674                       # Total number of requests made to the snoop filter.
system.membus.snoop_filter.tot_snoops               0                       # Total number of snoops made to the snoop filter.
system.switch_cpus.committedInsts                   0                       # Number of instructions committed
system.switch_cpus.committedOps                     0                       # Number of ops (including micro ops) committed
system.switch_cpus.dtb.rdAccesses                   0                       # TLB accesses on read requests
system.switch_cpus.dtb.rdMisses                     0                       # TLB misses on read requests
system.switch_cpus.dtb.wrAccesses                   0                       # TLB accesses on write requests
system.switch_cpus.dtb.wrMisses                     0                       # TLB misses on write requests
system.switch_cpus.idle_fraction                    0                       # Percentage of idle cycles
system.switch_cpus.itb.rdAccesses                   0                       # TLB accesses on read requests
system.switch_cpus.itb.rdMisses                     0                       # TLB misses on read requests
system.switch_cpus.itb.wrAccesses                   0                       # TLB accesses on write requests
system.switch_cpus.itb.wrMisses                     0                       # TLB misses on write requests
system.switch_cpus.not_idle_fraction                1                       # Percentage of non-idle cycles
system.switch_cpus.numCycles                        0                       # number of cpu cycles simulated
system.switch_cpus.numWorkItemsCompleted            0                       # number of work items this cpu completed
system.switch_cpus.numWorkItemsStarted              0                       # number of work items this cpu started
system.switch_cpus.num_busy_cycles                  0                       # Number of busy cycles
system.switch_cpus.num_conditional_control_insts            0                       # number of instructions that are conditional controls
system.switch_cpus.num_fp_alu_accesses              0                       # Number of float alu accesses
system.switch_cpus.num_fp_insts                     0                       # number of float instructions
system.switch_cpus.num_fp_register_reads            0                       # number of times the floating registers were read
system.switch_cpus.num_fp_register_writes            0                       # number of times the floating registers were written
system.switch_cpus.num_func_calls                   0                       # number of times a function call or return occured
system.switch_cpus.num_idle_cycles                  0                       # Number of idle cycles
system.switch_cpus.num_int_alu_accesses             0                       # Number of integer alu accesses
system.switch_cpus.num_int_insts                    0                       # number of integer instructions
system.switch_cpus.num_int_register_reads            0                       # number of times the integer registers were read
system.switch_cpus.num_int_register_writes            0                       # number of times the integer registers were written
system.switch_cpus.num_load_insts                   0                       # Number of load instructions
system.switch_cpus.num_mem_refs                     0                       # number of memory refs
system.switch_cpus.num_store_insts                  0                       # Number of store instructions
system.switch_cpus.num_vec_alu_accesses             0                       # Number of vector alu accesses
system.switch_cpus.num_vec_insts                    0                       # number of vector instructions
system.switch_cpus.num_vec_register_reads            0                       # number of times the vector registers were read
system.switch_cpus.num_vec_register_writes            0                       # number of times the vector registers were written
system.switch_cpus.op_class::No_OpClass             0                       # Class of executed instruction
system.switch_cpus.op_class::IntAlu                 0                       # Class of executed instruction
system.switch_cpus.op_class::IntMult                0                       # Class of executed instruction
system.switch_cpus.op_class::IntDiv                 0                       # Class of executed instruction
system.switch_cpus.op_class::FloatAdd               0                       # Class of executed instruction
system.switch_cpus.op_class::FloatCmp               0                       # Class of executed instruction
system.switch_cpus.op_class::FloatCvt               0                       # Class of executed instruction
system.switch_cpus.op_class::FloatMult              0                       # Class of executed instruction
system.switch_cpus.op_class::FloatMultAcc            0                       # Class of executed instruction
system.switch_cpus.op_class::FloatDiv               0                       # Class of executed instruction
system.switch_cpus.op_class::FloatMisc              0                       # Class of executed instruction
system.switch_cpus.op_class::FloatSqrt              0                       # Class of executed instruction
system.switch_cpus.op_class::SimdAdd                0                       # Class of executed instruction
system.switch_cpus.op_class::SimdAddAcc             0                       # Class of executed instruction
system.switch_cpus.op_class::SimdAlu                0                       # Class of executed instruction
system.switch_cpus.op_class::SimdCmp                0                       # Class of executed instruction
system.switch_cpus.op_class::SimdCvt                0                       # Class of executed instruction
system.switch_cpus.op_class::SimdMisc               0                       # Class of executed instruction
system.switch_cpus.op_class::SimdMult               0                       # Class of executed instruction
system.switch_cpus.op_class::SimdMultAcc            0                       # Class of executed instruction
system.switch_cpus.op_class::SimdShift              0                       # Class of executed instruction
system.switch_cpus.op_class::SimdShiftAcc            0                       # Class of executed instruction
system.switch_cpus.op_class::SimdDiv                0                       # Class of executed instruction
system.switch_cpus.op_class::SimdSqrt               0                       # Class of executed instruction
system.switch_cpus.op_class::SimdFloatAdd            0                       # Class of executed instruction
system.switch_cpus.op_class::SimdFloatAlu            0                       # Class of executed instruction
system.switch_cpus.op_class::SimdFloatCmp            0                       # Class of executed instruction
system.switch_cpus.op_class::SimdFloatCvt            0                       # Class of executed instruction
system.switch_cpus.op_class::SimdFloatDiv            0                       # Class of executed instruction
system.switch_cpus.op_class::SimdFloatMisc            0                       # Class of executed instruction
system.switch_cpus.op_class::SimdFloatMult            0                       # Class of executed instruction
system.switch_cpus.op_class::SimdFloatMultAcc            0                       # Class of executed instruction
system.switch_cpus.op_class::SimdFloatSqrt            0                       # Class of executed instruction
system.switch_cpus.op_class::SimdReduceAdd            0                       # Class of executed instruction
system.switch_cpus.op_class::SimdReduceAlu            0                       # Class of executed instruction
system.switch_cpus.op_class::SimdReduceCmp            0                       # Class of executed instruction
system.switch_cpus.op_class::SimdFloatReduceAdd            0                       # Class of executed instruction
system.switch_cpus.op_class::SimdFloatReduceCmp            0                       # Class of executed instruction
system.switch_cpus.op_class::SimdAes                0                       # Class of executed instruction
system.switch_cpus.op_class::SimdAesMix             0                       # Class of executed instruction
system.switch_cpus.op_class::SimdSha1Hash            0                       # Class of executed instruction
system.switch_cpus.op_class::SimdSha1Hash2            0                       # Class of executed instruction
system.switch_cpus.op_class::SimdSha256Hash            0                       # Class of executed instruction
system.switch_cpus.op_class::SimdSha256Hash2            0                       # Class of executed instruction
system.switch_cpus.op_class::SimdShaSigma2            0                       # Class of executed instruction
system.switch_cpus.op_class::SimdShaSigma3            0                       # Class of executed instruction
system.switch_cpus.op_class::SimdPredAlu            0                       # Class of executed instruction
system.switch_cpus.op_class::MemRead                0                       # Class of executed instruction
system.switch_cpus.op_class::MemWrite               0                       # Class of executed instruction
system.switch_cpus.op_class::FloatMemRead            0                       # Class of executed instruction
system.switch_cpus.op_class::FloatMemWrite            0                       # Class of executed instruction
system.switch_cpus.op_class::IprAccess              0                       # Class of executed instruction
system.switch_cpus.op_class::InstPrefetch            0                       # Class of executed instruction
system.switch_cpus.op_class::total                  0                       # Class of executed instruction
system.switch_cpus_1.branchPred.BTBCorrect            0                       # Number of correct BTB predictions (this stat may not work properly.
system.switch_cpus_1.branchPred.BTBHitPct          nan                       # BTB Hit Percentage
system.switch_cpus_1.branchPred.BTBHits             0                       # Number of BTB hits
system.switch_cpus_1.branchPred.BTBLookups            0                       # Number of BTB lookups
system.switch_cpus_1.branchPred.RASInCorrect           42                       # Number of incorrect RAS predictions.
system.switch_cpus_1.branchPred.condIncorrect     30781169                       # Number of conditional branches incorrect
system.switch_cpus_1.branchPred.condPredicted    518511177                       # Number of conditional branches predicted
system.switch_cpus_1.branchPred.indirectHits    207700737                       # Number of indirect target hits.
system.switch_cpus_1.branchPred.indirectLookups    294084590                       # Number of indirect predictor lookups.
system.switch_cpus_1.branchPred.indirectMisses     86383853                       # Number of indirect misses.
system.switch_cpus_1.branchPred.lookups     587667494                       # Number of BP lookups
system.switch_cpus_1.branchPred.usedRAS      29259233                       # Number of times the RAS was used to get a target.
system.switch_cpus_1.branchPredindirectMispredicted     22159981                       # Number of mispredicted indirect branches.
system.switch_cpus_1.cc_regfile_reads      2649291358                       # number of cc regfile reads
system.switch_cpus_1.cc_regfile_writes      992434554                       # number of cc regfile writes
system.switch_cpus_1.commit.amos                    0                       # Number of atomic instructions committed
system.switch_cpus_1.commit.branchMispredicts     30781411                       # The number of times a branch was mispredicted
system.switch_cpus_1.commit.branches        294035078                       # Number of branches committed
system.switch_cpus_1.commit.bw_lim_events    111102162                       # number cycles where commit BW limit reached
system.switch_cpus_1.commit.commitNonSpecStalls         1223                       # The number of times commit has been forced to stall to communicate backwards
system.switch_cpus_1.commit.commitSquashedInsts   1212675407                       # The number of squashed insts skipped by commit
system.switch_cpus_1.commit.committedInsts   1000000002                       # Number of instructions committed
system.switch_cpus_1.commit.committedOps   2697456384                       # Number of ops (including micro ops) committed
system.switch_cpus_1.commit.committed_per_cycle::samples   1684024224                       # Number of insts commited each cycle
system.switch_cpus_1.commit.committed_per_cycle::mean     1.601792                       # Number of insts commited each cycle
system.switch_cpus_1.commit.committed_per_cycle::stdev     2.329700                       # Number of insts commited each cycle
system.switch_cpus_1.commit.committed_per_cycle::underflows            0      0.00%      0.00% # Number of insts commited each cycle
system.switch_cpus_1.commit.committed_per_cycle::0    838397794     49.79%     49.79% # Number of insts commited each cycle
system.switch_cpus_1.commit.committed_per_cycle::1    270714470     16.08%     65.86% # Number of insts commited each cycle
system.switch_cpus_1.commit.committed_per_cycle::2    173053193     10.28%     76.14% # Number of insts commited each cycle
system.switch_cpus_1.commit.committed_per_cycle::3    133336098      7.92%     84.05% # Number of insts commited each cycle
system.switch_cpus_1.commit.committed_per_cycle::4     73507603      4.36%     88.42% # Number of insts commited each cycle
system.switch_cpus_1.commit.committed_per_cycle::5     32204204      1.91%     90.33% # Number of insts commited each cycle
system.switch_cpus_1.commit.committed_per_cycle::6     25202394      1.50%     91.83% # Number of insts commited each cycle
system.switch_cpus_1.commit.committed_per_cycle::7     26506306      1.57%     93.40% # Number of insts commited each cycle
system.switch_cpus_1.commit.committed_per_cycle::8    111102162      6.60%    100.00% # Number of insts commited each cycle
system.switch_cpus_1.commit.committed_per_cycle::overflows            0      0.00%    100.00% # Number of insts commited each cycle
system.switch_cpus_1.commit.committed_per_cycle::min_value            0                       # Number of insts commited each cycle
system.switch_cpus_1.commit.committed_per_cycle::max_value            8                       # Number of insts commited each cycle
system.switch_cpus_1.commit.committed_per_cycle::total   1684024224                       # Number of insts commited each cycle
system.switch_cpus_1.commit.fp_insts        154325703                       # Number of committed floating point instructions.
system.switch_cpus_1.commit.function_calls     14545387                       # Number of function calls committed.
system.switch_cpus_1.commit.int_insts      2506448580                       # Number of committed integer instructions.
system.switch_cpus_1.commit.loads           216253639                       # Number of loads committed
system.switch_cpus_1.commit.membars                40                       # Number of memory barriers committed
system.switch_cpus_1.commit.op_class_0::No_OpClass     99334878      3.68%      3.68% # Class of committed instruction
system.switch_cpus_1.commit.op_class_0::IntAlu   2070248115     76.75%     80.43% # Class of committed instruction
system.switch_cpus_1.commit.op_class_0::IntMult            0      0.00%     80.43% # Class of committed instruction
system.switch_cpus_1.commit.op_class_0::IntDiv    101157978      3.75%     84.18% # Class of committed instruction
system.switch_cpus_1.commit.op_class_0::FloatAdd      2988479      0.11%     84.29% # Class of committed instruction
system.switch_cpus_1.commit.op_class_0::FloatCmp            0      0.00%     84.29% # Class of committed instruction
system.switch_cpus_1.commit.op_class_0::FloatCvt            0      0.00%     84.29% # Class of committed instruction
system.switch_cpus_1.commit.op_class_0::FloatMult            0      0.00%     84.29% # Class of committed instruction
system.switch_cpus_1.commit.op_class_0::FloatMultAcc            0      0.00%     84.29% # Class of committed instruction
system.switch_cpus_1.commit.op_class_0::FloatDiv            0      0.00%     84.29% # Class of committed instruction
system.switch_cpus_1.commit.op_class_0::FloatMisc            0      0.00%     84.29% # Class of committed instruction
system.switch_cpus_1.commit.op_class_0::FloatSqrt            0      0.00%     84.29% # Class of committed instruction
system.switch_cpus_1.commit.op_class_0::SimdAdd     16263486      0.60%     84.89% # Class of committed instruction
system.switch_cpus_1.commit.op_class_0::SimdAddAcc            0      0.00%     84.89% # Class of committed instruction
system.switch_cpus_1.commit.op_class_0::SimdAlu     22504095      0.83%     85.73% # Class of committed instruction
system.switch_cpus_1.commit.op_class_0::SimdCmp       853710      0.03%     85.76% # Class of committed instruction
system.switch_cpus_1.commit.op_class_0::SimdCvt     37355140      1.38%     87.15% # Class of committed instruction
system.switch_cpus_1.commit.op_class_0::SimdMisc     22819147      0.85%     87.99% # Class of committed instruction
system.switch_cpus_1.commit.op_class_0::SimdMult            0      0.00%     87.99% # Class of committed instruction
system.switch_cpus_1.commit.op_class_0::SimdMultAcc            0      0.00%     87.99% # Class of committed instruction
system.switch_cpus_1.commit.op_class_0::SimdShift      5156746      0.19%     88.18% # Class of committed instruction
system.switch_cpus_1.commit.op_class_0::SimdShiftAcc            0      0.00%     88.18% # Class of committed instruction
system.switch_cpus_1.commit.op_class_0::SimdDiv            0      0.00%     88.18% # Class of committed instruction
system.switch_cpus_1.commit.op_class_0::SimdSqrt            0      0.00%     88.18% # Class of committed instruction
system.switch_cpus_1.commit.op_class_0::SimdFloatAdd            9      0.00%     88.18% # Class of committed instruction
system.switch_cpus_1.commit.op_class_0::SimdFloatAlu            0      0.00%     88.18% # Class of committed instruction
system.switch_cpus_1.commit.op_class_0::SimdFloatCmp            0      0.00%     88.18% # Class of committed instruction
system.switch_cpus_1.commit.op_class_0::SimdFloatCvt       911311      0.03%     88.22% # Class of committed instruction
system.switch_cpus_1.commit.op_class_0::SimdFloatDiv            0      0.00%     88.22% # Class of committed instruction
system.switch_cpus_1.commit.op_class_0::SimdFloatMisc            0      0.00%     88.22% # Class of committed instruction
system.switch_cpus_1.commit.op_class_0::SimdFloatMult           16      0.00%     88.22% # Class of committed instruction
system.switch_cpus_1.commit.op_class_0::SimdFloatMultAcc            0      0.00%     88.22% # Class of committed instruction
system.switch_cpus_1.commit.op_class_0::SimdFloatSqrt            0      0.00%     88.22% # Class of committed instruction
system.switch_cpus_1.commit.op_class_0::SimdReduceAdd            0      0.00%     88.22% # Class of committed instruction
system.switch_cpus_1.commit.op_class_0::SimdReduceAlu            0      0.00%     88.22% # Class of committed instruction
system.switch_cpus_1.commit.op_class_0::SimdReduceCmp            0      0.00%     88.22% # Class of committed instruction
system.switch_cpus_1.commit.op_class_0::SimdFloatReduceAdd            0      0.00%     88.22% # Class of committed instruction
system.switch_cpus_1.commit.op_class_0::SimdFloatReduceCmp            0      0.00%     88.22% # Class of committed instruction
system.switch_cpus_1.commit.op_class_0::SimdAes            0      0.00%     88.22% # Class of committed instruction
system.switch_cpus_1.commit.op_class_0::SimdAesMix            0      0.00%     88.22% # Class of committed instruction
system.switch_cpus_1.commit.op_class_0::SimdSha1Hash            0      0.00%     88.22% # Class of committed instruction
system.switch_cpus_1.commit.op_class_0::SimdSha1Hash2            0      0.00%     88.22% # Class of committed instruction
system.switch_cpus_1.commit.op_class_0::SimdSha256Hash            0      0.00%     88.22% # Class of committed instruction
system.switch_cpus_1.commit.op_class_0::SimdSha256Hash2            0      0.00%     88.22% # Class of committed instruction
system.switch_cpus_1.commit.op_class_0::SimdShaSigma2            0      0.00%     88.22% # Class of committed instruction
system.switch_cpus_1.commit.op_class_0::SimdShaSigma3            0      0.00%     88.22% # Class of committed instruction
system.switch_cpus_1.commit.op_class_0::SimdPredAlu            0      0.00%     88.22% # Class of committed instruction
system.switch_cpus_1.commit.op_class_0::MemRead    174133896      6.46%     94.67% # Class of committed instruction
system.switch_cpus_1.commit.op_class_0::MemWrite     99100120      3.67%     98.35% # Class of committed instruction
system.switch_cpus_1.commit.op_class_0::FloatMemRead     42119743      1.56%     99.91% # Class of committed instruction
system.switch_cpus_1.commit.op_class_0::FloatMemWrite      2509515      0.09%    100.00% # Class of committed instruction
system.switch_cpus_1.commit.op_class_0::IprAccess            0      0.00%    100.00% # Class of committed instruction
system.switch_cpus_1.commit.op_class_0::InstPrefetch            0      0.00%    100.00% # Class of committed instruction
system.switch_cpus_1.commit.op_class_0::total   2697456384                       # Class of committed instruction
system.switch_cpus_1.commit.refs            317863274                       # Number of memory references committed
system.switch_cpus_1.commit.swp_count               0                       # Number of s/w prefetches committed
system.switch_cpus_1.commit.vec_insts               0                       # Number of committed Vector instructions.
system.switch_cpus_1.committedInsts        1000000002                       # Number of Instructions Simulated
system.switch_cpus_1.committedOps          2697456384                       # Number of Ops (including micro ops) Simulated
system.switch_cpus_1.cpi                     1.861132                       # CPI: Cycles Per Instruction
system.switch_cpus_1.cpi_total               1.861132                       # CPI: Total CPI of All Threads
system.switch_cpus_1.decode.BlockedCycles   1104233277                       # Number of cycles decode is blocked
system.switch_cpus_1.decode.DecodedInsts   4416260016                       # Number of instructions handled by decode
system.switch_cpus_1.decode.IdleCycles      142970363                       # Number of cycles decode is idle
system.switch_cpus_1.decode.RunCycles       379153187                       # Number of cycles decode is running
system.switch_cpus_1.decode.SquashCycles     30854860                       # Number of cycles decode is squashing
system.switch_cpus_1.decode.UnblockCycles    203706940                       # Number of cycles decode is unblocking
system.switch_cpus_1.dtb.rdAccesses         289934057                       # TLB accesses on read requests
system.switch_cpus_1.dtb.rdMisses             9419248                       # TLB misses on read requests
system.switch_cpus_1.dtb.wrAccesses         125634852                       # TLB accesses on write requests
system.switch_cpus_1.dtb.wrMisses              248611                       # TLB misses on write requests
system.switch_cpus_1.fetch.Branches         587667494                       # Number of branches that fetch encountered
system.switch_cpus_1.fetch.CacheLines       255092078                       # Number of cache lines fetched
system.switch_cpus_1.fetch.Cycles          1797164387                       # Number of cycles fetch has run and was not squashing or blocked
system.switch_cpus_1.fetch.IcacheSquashes       831538                       # Number of outstanding Icache misses that were squashed
system.switch_cpus_1.fetch.IcacheWaitRetryStallCycles          398                       # Number of stall cycles due to full MSHR
system.switch_cpus_1.fetch.Insts           1922691137                       # Number of instructions fetch has processed
system.switch_cpus_1.fetch.MiscStallCycles          537                       # Number of cycles fetch has spent waiting on interrupts, or bad addresses, or out of MSHRs
system.switch_cpus_1.fetch.PendingTrapStallCycles         1732                       # Number of stall cycles due to pending traps
system.switch_cpus_1.fetch.SquashCycles      61709720                       # Number of cycles fetch has spent squashing
system.switch_cpus_1.fetch.branchRate        0.315758                       # Number of branch fetches per cycle
system.switch_cpus_1.fetch.icacheStallCycles     32896728                       # Number of cycles fetch is stalled on an Icache miss
system.switch_cpus_1.fetch.predictedBranches    236959970                       # Number of branches that fetch has predicted taken
system.switch_cpus_1.fetch.rate              1.033076                       # Number of inst fetches per cycle
system.switch_cpus_1.fetch.rateDist::samples   1860918642                       # Number of instructions fetched each cycle (Total)
system.switch_cpus_1.fetch.rateDist::mean     2.721640                       # Number of instructions fetched each cycle (Total)
system.switch_cpus_1.fetch.rateDist::stdev     3.524441                       # Number of instructions fetched each cycle (Total)
system.switch_cpus_1.fetch.rateDist::underflows            0      0.00%      0.00% # Number of instructions fetched each cycle (Total)
system.switch_cpus_1.fetch.rateDist::0     1077946316     57.93%     57.93% # Number of instructions fetched each cycle (Total)
system.switch_cpus_1.fetch.rateDist::1       35829127      1.93%     59.85% # Number of instructions fetched each cycle (Total)
system.switch_cpus_1.fetch.rateDist::2       41121982      2.21%     62.06% # Number of instructions fetched each cycle (Total)
system.switch_cpus_1.fetch.rateDist::3       57161075      3.07%     65.13% # Number of instructions fetched each cycle (Total)
system.switch_cpus_1.fetch.rateDist::4       49503268      2.66%     67.79% # Number of instructions fetched each cycle (Total)
system.switch_cpus_1.fetch.rateDist::5       36296514      1.95%     69.74% # Number of instructions fetched each cycle (Total)
system.switch_cpus_1.fetch.rateDist::6       40917760      2.20%     71.94% # Number of instructions fetched each cycle (Total)
system.switch_cpus_1.fetch.rateDist::7       26947973      1.45%     73.39% # Number of instructions fetched each cycle (Total)
system.switch_cpus_1.fetch.rateDist::8      495194627     26.61%    100.00% # Number of instructions fetched each cycle (Total)
system.switch_cpus_1.fetch.rateDist::overflows            0      0.00%    100.00% # Number of instructions fetched each cycle (Total)
system.switch_cpus_1.fetch.rateDist::min_value            0                       # Number of instructions fetched each cycle (Total)
system.switch_cpus_1.fetch.rateDist::max_value            8                       # Number of instructions fetched each cycle (Total)
system.switch_cpus_1.fetch.rateDist::total   1860918642                       # Number of instructions fetched each cycle (Total)
system.switch_cpus_1.fp_regfile_reads       326751900                       # number of floating regfile reads
system.switch_cpus_1.fp_regfile_writes      188199065                       # number of floating regfile writes
system.switch_cpus_1.idleCycles                213668                       # Total number of cycles that the CPU has spent unscheduled due to idling
system.switch_cpus_1.iew.branchMispredicts     38953896                       # Number of branch mispredicts detected at execute
system.switch_cpus_1.iew.exec_branches      339761603                       # Number of branches executed
system.switch_cpus_1.iew.exec_nop                   0                       # number of nop insts executed
system.switch_cpus_1.iew.exec_rate           1.758747                       # Inst execution rate
system.switch_cpus_1.iew.exec_refs          413533012                       # number of memory reference insts executed
system.switch_cpus_1.iew.exec_stores        125436678                       # Number of stores executed
system.switch_cpus_1.iew.exec_swp                   0                       # number of swp insts executed
system.switch_cpus_1.iew.iewBlockCycles     676766015                       # Number of cycles IEW is blocking
system.switch_cpus_1.iew.iewDispLoadInsts    346492703                       # Number of dispatched load instructions
system.switch_cpus_1.iew.iewDispNonSpecInsts         1271                       # Number of dispatched non-speculative instructions
system.switch_cpus_1.iew.iewDispSquashedInsts      2778484                       # Number of squashed instructions skipped by dispatch
system.switch_cpus_1.iew.iewDispStoreInsts    171962346                       # Number of dispatched store instructions
system.switch_cpus_1.iew.iewDispatchedInsts   3911563688                       # Number of instructions dispatched to IQ
system.switch_cpus_1.iew.iewExecLoadInsts    288096334                       # Number of load instructions executed
system.switch_cpus_1.iew.iewExecSquashedInsts     62838711                       # Number of squashed instructions skipped in execute
system.switch_cpus_1.iew.iewExecutedInsts   3273260568                       # Number of executed instructions
system.switch_cpus_1.iew.iewIQFullEvents      9072101                       # Number of times the IQ has become full, causing a stall
system.switch_cpus_1.iew.iewIdleCycles              0                       # Number of cycles IEW is idle
system.switch_cpus_1.iew.iewLSQFullEvents      3948927                       # Number of times the LSQ has become full, causing a stall
system.switch_cpus_1.iew.iewSquashCycles     30854860                       # Number of cycles IEW is squashing
system.switch_cpus_1.iew.iewUnblockCycles     21796464                       # Number of cycles IEW is unblocking
system.switch_cpus_1.iew.lsq.thread0.blockedLoads            0                       # Number of blocked loads due to partial load-store forwarding
system.switch_cpus_1.iew.lsq.thread0.cacheBlocked        64607                       # Number of times an access to memory failed due to the cache being blocked
system.switch_cpus_1.iew.lsq.thread0.forwLoads     16672967                       # Number of loads that had data forwarded from stores
system.switch_cpus_1.iew.lsq.thread0.ignoredResponses       131843                       # Number of memory responses ignored because the instruction is squashed
system.switch_cpus_1.iew.lsq.thread0.invAddrLoads            0                       # Number of loads ignored due to an invalid address
system.switch_cpus_1.iew.lsq.thread0.invAddrSwpfs            0                       # Number of software prefetches ignored due to an invalid address
system.switch_cpus_1.iew.lsq.thread0.memOrderViolation        19665                       # Number of memory ordering violations
system.switch_cpus_1.iew.lsq.thread0.rescheduledLoads       141001                       # Number of loads that were rescheduled
system.switch_cpus_1.iew.lsq.thread0.squashedLoads    130239060                       # Number of loads squashed
system.switch_cpus_1.iew.lsq.thread0.squashedStores     70352711                       # Number of stores squashed
system.switch_cpus_1.iew.memOrderViolationEvents        19665                       # Number of memory order violations
system.switch_cpus_1.iew.predictedNotTakenIncorrect     34529160                       # Number of branches that were predicted not taken incorrectly
system.switch_cpus_1.iew.predictedTakenIncorrect      4424736                       # Number of branches that were predicted taken incorrectly
system.switch_cpus_1.iew.wb_consumers      5508784445                       # num instructions consuming a value
system.switch_cpus_1.iew.wb_count          3250675848                       # cumulative count of insts written-back
system.switch_cpus_1.iew.wb_fanout           0.453633                       # average fanout of values written-back
system.switch_cpus_1.iew.wb_producers      2498964893                       # num instructions producing a value
system.switch_cpus_1.iew.wb_rate             1.746612                       # insts written-back per cycle
system.switch_cpus_1.iew.wb_sent           3263578715                       # cumulative count of insts sent to commit
system.switch_cpus_1.int_regfile_reads     5027672262                       # number of integer regfile reads
system.switch_cpus_1.int_regfile_writes    2763175797                       # number of integer regfile writes
system.switch_cpus_1.ipc                     0.537307                       # IPC: Instructions Per Cycle
system.switch_cpus_1.ipc_total               0.537307                       # IPC: Total IPC of All Threads
system.switch_cpus_1.iq.FU_type_0::No_OpClass    134094751      4.02%      4.02% # Type of FU issued
system.switch_cpus_1.iq.FU_type_0::IntAlu   2514504820     75.37%     79.39% # Type of FU issued
system.switch_cpus_1.iq.FU_type_0::IntMult        62754      0.00%     79.39% # Type of FU issued
system.switch_cpus_1.iq.FU_type_0::IntDiv    101204878      3.03%     82.43% # Type of FU issued
system.switch_cpus_1.iq.FU_type_0::FloatAdd     13189813      0.40%     82.82% # Type of FU issued
system.switch_cpus_1.iq.FU_type_0::FloatCmp            0      0.00%     82.82% # Type of FU issued
system.switch_cpus_1.iq.FU_type_0::FloatCvt        73562      0.00%     82.83% # Type of FU issued
system.switch_cpus_1.iq.FU_type_0::FloatMult            0      0.00%     82.83% # Type of FU issued
system.switch_cpus_1.iq.FU_type_0::FloatMultAcc            0      0.00%     82.83% # Type of FU issued
system.switch_cpus_1.iq.FU_type_0::FloatDiv            0      0.00%     82.83% # Type of FU issued
system.switch_cpus_1.iq.FU_type_0::FloatMisc            0      0.00%     82.83% # Type of FU issued
system.switch_cpus_1.iq.FU_type_0::FloatSqrt            0      0.00%     82.83% # Type of FU issued
system.switch_cpus_1.iq.FU_type_0::SimdAdd     19593985      0.59%     83.41% # Type of FU issued
system.switch_cpus_1.iq.FU_type_0::SimdAddAcc            0      0.00%     83.41% # Type of FU issued
system.switch_cpus_1.iq.FU_type_0::SimdAlu     34615803      1.04%     84.45% # Type of FU issued
system.switch_cpus_1.iq.FU_type_0::SimdCmp       999472      0.03%     84.48% # Type of FU issued
system.switch_cpus_1.iq.FU_type_0::SimdCvt     44317946      1.33%     85.81% # Type of FU issued
system.switch_cpus_1.iq.FU_type_0::SimdMisc     26125550      0.78%     86.59% # Type of FU issued
system.switch_cpus_1.iq.FU_type_0::SimdMult            0      0.00%     86.59% # Type of FU issued
system.switch_cpus_1.iq.FU_type_0::SimdMultAcc            0      0.00%     86.59% # Type of FU issued
system.switch_cpus_1.iq.FU_type_0::SimdShift     12708828      0.38%     86.97% # Type of FU issued
system.switch_cpus_1.iq.FU_type_0::SimdShiftAcc            0      0.00%     86.97% # Type of FU issued
system.switch_cpus_1.iq.FU_type_0::SimdDiv            0      0.00%     86.97% # Type of FU issued
system.switch_cpus_1.iq.FU_type_0::SimdSqrt            0      0.00%     86.97% # Type of FU issued
system.switch_cpus_1.iq.FU_type_0::SimdFloatAdd            9      0.00%     86.97% # Type of FU issued
system.switch_cpus_1.iq.FU_type_0::SimdFloatAlu            0      0.00%     86.97% # Type of FU issued
system.switch_cpus_1.iq.FU_type_0::SimdFloatCmp            0      0.00%     86.97% # Type of FU issued
system.switch_cpus_1.iq.FU_type_0::SimdFloatCvt      1216766      0.04%     87.01% # Type of FU issued
system.switch_cpus_1.iq.FU_type_0::SimdFloatDiv            0      0.00%     87.01% # Type of FU issued
system.switch_cpus_1.iq.FU_type_0::SimdFloatMisc            0      0.00%     87.01% # Type of FU issued
system.switch_cpus_1.iq.FU_type_0::SimdFloatMult        80989      0.00%     87.01% # Type of FU issued
system.switch_cpus_1.iq.FU_type_0::SimdFloatMultAcc            0      0.00%     87.01% # Type of FU issued
system.switch_cpus_1.iq.FU_type_0::SimdFloatSqrt            0      0.00%     87.01% # Type of FU issued
system.switch_cpus_1.iq.FU_type_0::SimdReduceAdd            0      0.00%     87.01% # Type of FU issued
system.switch_cpus_1.iq.FU_type_0::SimdReduceAlu            0      0.00%     87.01% # Type of FU issued
system.switch_cpus_1.iq.FU_type_0::SimdReduceCmp            0      0.00%     87.01% # Type of FU issued
system.switch_cpus_1.iq.FU_type_0::SimdFloatReduceAdd            0      0.00%     87.01% # Type of FU issued
system.switch_cpus_1.iq.FU_type_0::SimdFloatReduceCmp            0      0.00%     87.01% # Type of FU issued
system.switch_cpus_1.iq.FU_type_0::SimdAes            0      0.00%     87.01% # Type of FU issued
system.switch_cpus_1.iq.FU_type_0::SimdAesMix            0      0.00%     87.01% # Type of FU issued
system.switch_cpus_1.iq.FU_type_0::SimdSha1Hash            0      0.00%     87.01% # Type of FU issued
system.switch_cpus_1.iq.FU_type_0::SimdSha1Hash2            0      0.00%     87.01% # Type of FU issued
system.switch_cpus_1.iq.FU_type_0::SimdSha256Hash            0      0.00%     87.01% # Type of FU issued
system.switch_cpus_1.iq.FU_type_0::SimdSha256Hash2            0      0.00%     87.01% # Type of FU issued
system.switch_cpus_1.iq.FU_type_0::SimdShaSigma2            0      0.00%     87.01% # Type of FU issued
system.switch_cpus_1.iq.FU_type_0::SimdShaSigma3            0      0.00%     87.01% # Type of FU issued
system.switch_cpus_1.iq.FU_type_0::SimdPredAlu            0      0.00%     87.01% # Type of FU issued
system.switch_cpus_1.iq.FU_type_0::MemRead    231001353      6.92%     93.94% # Type of FU issued
system.switch_cpus_1.iq.FU_type_0::MemWrite    127809023      3.83%     97.77% # Type of FU issued
system.switch_cpus_1.iq.FU_type_0::FloatMemRead     70115830      2.10%     99.87% # Type of FU issued
system.switch_cpus_1.iq.FU_type_0::FloatMemWrite      4383150      0.13%    100.00% # Type of FU issued
system.switch_cpus_1.iq.FU_type_0::IprAccess            0      0.00%    100.00% # Type of FU issued
system.switch_cpus_1.iq.FU_type_0::InstPrefetch            0      0.00%    100.00% # Type of FU issued
system.switch_cpus_1.iq.FU_type_0::total   3336099282                       # Type of FU issued
system.switch_cpus_1.iq.fp_alu_accesses     232858264                       # Number of floating point alu accesses
system.switch_cpus_1.iq.fp_inst_queue_reads    463814736                       # Number of floating instruction queue reads
system.switch_cpus_1.iq.fp_inst_queue_wakeup_accesses    215683295                       # Number of floating instruction queue wakeup accesses
system.switch_cpus_1.iq.fp_inst_queue_writes    408723328                       # Number of floating instruction queue writes
system.switch_cpus_1.iq.fu_busy_cnt          48602513                       # FU busy when requested
system.switch_cpus_1.iq.fu_busy_rate         0.014569                       # FU busy rate (busy events/executed inst)
system.switch_cpus_1.iq.fu_full::No_OpClass            0      0.00%      0.00% # attempts to use FU when none available
system.switch_cpus_1.iq.fu_full::IntAlu      42888053     88.24%     88.24% # attempts to use FU when none available
system.switch_cpus_1.iq.fu_full::IntMult            0      0.00%     88.24% # attempts to use FU when none available
system.switch_cpus_1.iq.fu_full::IntDiv             0      0.00%     88.24% # attempts to use FU when none available
system.switch_cpus_1.iq.fu_full::FloatAdd            0      0.00%     88.24% # attempts to use FU when none available
system.switch_cpus_1.iq.fu_full::FloatCmp            0      0.00%     88.24% # attempts to use FU when none available
system.switch_cpus_1.iq.fu_full::FloatCvt          342      0.00%     88.24% # attempts to use FU when none available
system.switch_cpus_1.iq.fu_full::FloatMult            0      0.00%     88.24% # attempts to use FU when none available
system.switch_cpus_1.iq.fu_full::FloatMultAcc            0      0.00%     88.24% # attempts to use FU when none available
system.switch_cpus_1.iq.fu_full::FloatDiv            0      0.00%     88.24% # attempts to use FU when none available
system.switch_cpus_1.iq.fu_full::FloatMisc            0      0.00%     88.24% # attempts to use FU when none available
system.switch_cpus_1.iq.fu_full::FloatSqrt            0      0.00%     88.24% # attempts to use FU when none available
system.switch_cpus_1.iq.fu_full::SimdAdd          131      0.00%     88.24% # attempts to use FU when none available
system.switch_cpus_1.iq.fu_full::SimdAddAcc            0      0.00%     88.24% # attempts to use FU when none available
system.switch_cpus_1.iq.fu_full::SimdAlu       380537      0.78%     89.03% # attempts to use FU when none available
system.switch_cpus_1.iq.fu_full::SimdCmp           72      0.00%     89.03% # attempts to use FU when none available
system.switch_cpus_1.iq.fu_full::SimdCvt       442845      0.91%     89.94% # attempts to use FU when none available
system.switch_cpus_1.iq.fu_full::SimdMisc       520331      1.07%     91.01% # attempts to use FU when none available
system.switch_cpus_1.iq.fu_full::SimdMult            0      0.00%     91.01% # attempts to use FU when none available
system.switch_cpus_1.iq.fu_full::SimdMultAcc            0      0.00%     91.01% # attempts to use FU when none available
system.switch_cpus_1.iq.fu_full::SimdShift        32982      0.07%     91.08% # attempts to use FU when none available
system.switch_cpus_1.iq.fu_full::SimdShiftAcc            0      0.00%     91.08% # attempts to use FU when none available
system.switch_cpus_1.iq.fu_full::SimdDiv            0      0.00%     91.08% # attempts to use FU when none available
system.switch_cpus_1.iq.fu_full::SimdSqrt            0      0.00%     91.08% # attempts to use FU when none available
system.switch_cpus_1.iq.fu_full::SimdFloatAdd            0      0.00%     91.08% # attempts to use FU when none available
system.switch_cpus_1.iq.fu_full::SimdFloatAlu            0      0.00%     91.08% # attempts to use FU when none available
system.switch_cpus_1.iq.fu_full::SimdFloatCmp            0      0.00%     91.08% # attempts to use FU when none available
system.switch_cpus_1.iq.fu_full::SimdFloatCvt            0      0.00%     91.08% # attempts to use FU when none available
system.switch_cpus_1.iq.fu_full::SimdFloatDiv            0      0.00%     91.08% # attempts to use FU when none available
system.switch_cpus_1.iq.fu_full::SimdFloatMisc            0      0.00%     91.08% # attempts to use FU when none available
system.switch_cpus_1.iq.fu_full::SimdFloatMult            0      0.00%     91.08% # attempts to use FU when none available
system.switch_cpus_1.iq.fu_full::SimdFloatMultAcc            0      0.00%     91.08% # attempts to use FU when none available
system.switch_cpus_1.iq.fu_full::SimdFloatSqrt            0      0.00%     91.08% # attempts to use FU when none available
system.switch_cpus_1.iq.fu_full::SimdReduceAdd            0      0.00%     91.08% # attempts to use FU when none available
system.switch_cpus_1.iq.fu_full::SimdReduceAlu            0      0.00%     91.08% # attempts to use FU when none available
system.switch_cpus_1.iq.fu_full::SimdReduceCmp            0      0.00%     91.08% # attempts to use FU when none available
system.switch_cpus_1.iq.fu_full::SimdFloatReduceAdd            0      0.00%     91.08% # attempts to use FU when none available
system.switch_cpus_1.iq.fu_full::SimdFloatReduceCmp            0      0.00%     91.08% # attempts to use FU when none available
system.switch_cpus_1.iq.fu_full::SimdAes            0      0.00%     91.08% # attempts to use FU when none available
system.switch_cpus_1.iq.fu_full::SimdAesMix            0      0.00%     91.08% # attempts to use FU when none available
system.switch_cpus_1.iq.fu_full::SimdSha1Hash            0      0.00%     91.08% # attempts to use FU when none available
system.switch_cpus_1.iq.fu_full::SimdSha1Hash2            0      0.00%     91.08% # attempts to use FU when none available
system.switch_cpus_1.iq.fu_full::SimdSha256Hash            0      0.00%     91.08% # attempts to use FU when none available
system.switch_cpus_1.iq.fu_full::SimdSha256Hash2            0      0.00%     91.08% # attempts to use FU when none available
system.switch_cpus_1.iq.fu_full::SimdShaSigma2            0      0.00%     91.08% # attempts to use FU when none available
system.switch_cpus_1.iq.fu_full::SimdShaSigma3            0      0.00%     91.08% # attempts to use FU when none available
system.switch_cpus_1.iq.fu_full::SimdPredAlu            0      0.00%     91.08% # attempts to use FU when none available
system.switch_cpus_1.iq.fu_full::MemRead      1222694      2.52%     93.59% # attempts to use FU when none available
system.switch_cpus_1.iq.fu_full::MemWrite      1324259      2.72%     96.32% # attempts to use FU when none available
system.switch_cpus_1.iq.fu_full::FloatMemRead      1476656      3.04%     99.35% # attempts to use FU when none available
system.switch_cpus_1.iq.fu_full::FloatMemWrite       313611      0.65%    100.00% # attempts to use FU when none available
system.switch_cpus_1.iq.fu_full::IprAccess            0      0.00%    100.00% # attempts to use FU when none available
system.switch_cpus_1.iq.fu_full::InstPrefetch            0      0.00%    100.00% # attempts to use FU when none available
system.switch_cpus_1.iq.int_alu_accesses   3017748780                       # Number of integer alu accesses
system.switch_cpus_1.iq.int_inst_queue_reads   8140150364                       # Number of integer instruction queue reads
system.switch_cpus_1.iq.int_inst_queue_wakeup_accesses   3034992553                       # Number of integer instruction queue wakeup accesses
system.switch_cpus_1.iq.int_inst_queue_writes   4716967076                       # Number of integer instruction queue writes
system.switch_cpus_1.iq.iqInstsAdded       3911562109                       # Number of instructions added to the IQ (excludes non-spec)
system.switch_cpus_1.iq.iqInstsIssued      3336099282                       # Number of instructions issued
system.switch_cpus_1.iq.iqNonSpecInstsAdded         1579                       # Number of non-speculative instructions added to the IQ
system.switch_cpus_1.iq.iqSquashedInstsExamined   1214107231                       # Number of squashed instructions iterated over during squash; mainly for profiling
system.switch_cpus_1.iq.iqSquashedInstsIssued     22245384                       # Number of squashed instructions issued
system.switch_cpus_1.iq.iqSquashedNonSpecRemoved          356                       # Number of squashed non-spec instructions that were removed
system.switch_cpus_1.iq.iqSquashedOperandsExamined   2248701393                       # Number of squashed operands that are examined and possibly removed from graph
system.switch_cpus_1.iq.issued_per_cycle::samples   1860918642                       # Number of insts issued each cycle
system.switch_cpus_1.iq.issued_per_cycle::mean     1.792716                       # Number of insts issued each cycle
system.switch_cpus_1.iq.issued_per_cycle::stdev     2.229993                       # Number of insts issued each cycle
system.switch_cpus_1.iq.issued_per_cycle::underflows            0      0.00%      0.00% # Number of insts issued each cycle
system.switch_cpus_1.iq.issued_per_cycle::0    871576496     46.84%     46.84% # Number of insts issued each cycle
system.switch_cpus_1.iq.issued_per_cycle::1    198400545     10.66%     57.50% # Number of insts issued each cycle
system.switch_cpus_1.iq.issued_per_cycle::2    215460020     11.58%     69.08% # Number of insts issued each cycle
system.switch_cpus_1.iq.issued_per_cycle::3    168483585      9.05%     78.13% # Number of insts issued each cycle
system.switch_cpus_1.iq.issued_per_cycle::4    143395640      7.71%     85.83% # Number of insts issued each cycle
system.switch_cpus_1.iq.issued_per_cycle::5     94215954      5.06%     90.90% # Number of insts issued each cycle
system.switch_cpus_1.iq.issued_per_cycle::6     72058629      3.87%     94.77% # Number of insts issued each cycle
system.switch_cpus_1.iq.issued_per_cycle::7     54308346      2.92%     97.69% # Number of insts issued each cycle
system.switch_cpus_1.iq.issued_per_cycle::8     43019427      2.31%    100.00% # Number of insts issued each cycle
system.switch_cpus_1.iq.issued_per_cycle::overflows            0      0.00%    100.00% # Number of insts issued each cycle
system.switch_cpus_1.iq.issued_per_cycle::min_value            0                       # Number of insts issued each cycle
system.switch_cpus_1.iq.issued_per_cycle::max_value            8                       # Number of insts issued each cycle
system.switch_cpus_1.iq.issued_per_cycle::total   1860918642                       # Number of insts issued each cycle
system.switch_cpus_1.iq.rate                 1.792511                       # Inst issue rate
system.switch_cpus_1.iq.vec_alu_accesses            0                       # Number of vector alu accesses
system.switch_cpus_1.iq.vec_inst_queue_reads            0                       # Number of vector instruction queue reads
system.switch_cpus_1.iq.vec_inst_queue_wakeup_accesses            0                       # Number of vector instruction queue wakeup accesses
system.switch_cpus_1.iq.vec_inst_queue_writes            0                       # Number of vector instruction queue writes
system.switch_cpus_1.itb.rdAccesses                 0                       # TLB accesses on read requests
system.switch_cpus_1.itb.rdMisses                   0                       # TLB misses on read requests
system.switch_cpus_1.itb.wrAccesses         255092340                       # TLB accesses on write requests
system.switch_cpus_1.itb.wrMisses                 803                       # TLB misses on write requests
system.switch_cpus_1.memDep0.conflictingLoads      4454200                       # Number of conflicting loads.
system.switch_cpus_1.memDep0.conflictingStores       771813                       # Number of conflicting stores.
system.switch_cpus_1.memDep0.insertedLoads    346492703                       # Number of loads inserted to the mem dependence unit.
system.switch_cpus_1.memDep0.insertedStores    171962346                       # Number of stores inserted to the mem dependence unit.
system.switch_cpus_1.misc_regfile_reads     939024029                       # number of misc regfile reads
system.switch_cpus_1.numCycles             1861132310                       # number of cpu cycles simulated
system.switch_cpus_1.numWorkItemsCompleted            0                       # number of work items this cpu completed
system.switch_cpus_1.numWorkItemsStarted            0                       # number of work items this cpu started
system.switch_cpus_1.rename.BlockCycles     743593869                       # Number of cycles rename is blocking
system.switch_cpus_1.rename.CommittedMaps   3364763976                       # Number of HB maps that are committed
system.switch_cpus_1.rename.IQFullEvents    327452024                       # Number of times rename has blocked due to IQ full
system.switch_cpus_1.rename.IdleCycles      214110746                       # Number of cycles rename is idle
system.switch_cpus_1.rename.LQFullEvents      1914248                       # Number of times rename has blocked due to LQ full
system.switch_cpus_1.rename.ROBFullEvents       246054                       # Number of times rename has blocked due to ROB full
system.switch_cpus_1.rename.RenameLookups  11984719029                       # Number of register rename lookups that rename has made
system.switch_cpus_1.rename.RenamedInsts   4232227404                       # Number of instructions processed by rename
system.switch_cpus_1.rename.RenamedOperands   5062425706                       # Number of destination operands rename has renamed
system.switch_cpus_1.rename.RunCycles       500732156                       # Number of cycles rename is running
system.switch_cpus_1.rename.SQFullEvents     14249954                       # Number of times rename has blocked due to SQ full
system.switch_cpus_1.rename.SquashCycles     30854860                       # Number of cycles rename is squashing
system.switch_cpus_1.rename.UnblockCycles    371585801                       # Number of cycles rename is unblocking
system.switch_cpus_1.rename.UndoneMaps     1697661613                       # Number of HB maps that are undone due to squashing
system.switch_cpus_1.rename.fp_rename_lookups    465854634                       # Number of floating rename lookups
system.switch_cpus_1.rename.int_rename_lookups   6674928089                       # Number of integer rename lookups
system.switch_cpus_1.rename.serializeStallCycles        41196                       # count of cycles rename stalled for serializing inst
system.switch_cpus_1.rename.serializingInsts         1162                       # count of serializing insts renamed
system.switch_cpus_1.rename.skidInsts       807591826                       # count of insts added to the skid buffer
system.switch_cpus_1.rename.tempSerializingInsts         1162                       # count of temporary serializing insts renamed
system.switch_cpus_1.rob.rob_reads         5482312333                       # The number of ROB reads
system.switch_cpus_1.rob.rob_writes        7999643624                       # The number of ROB writes
system.switch_cpus_1.timesIdled                 21984                       # Number of times that the entire CPU went into an idle state and unscheduled itself
system.tol2bus.snoop_filter.hit_multi_requests        15548                       # Number of requests hitting in the snoop filter with multiple (>1) holders of the requested data.
system.tol2bus.snoop_filter.hit_multi_snoops           26                       # Number of snoops hitting in the snoop filter with multiple (>1) holders of the requested data.
system.tol2bus.snoop_filter.hit_single_requests     22743315                       # Number of requests hitting in the snoop filter with a single holder of the requested data.
system.tol2bus.snoop_filter.hit_single_snoops       103780                       # Number of snoops hitting in the snoop filter with a single holder of the requested data.
system.tol2bus.snoop_filter.tot_requests     45376153                       # Total number of requests made to the snoop filter.
system.tol2bus.snoop_filter.tot_snoops         103806                       # Total number of snoops made to the snoop filter.
system.tol3bus.snoop_filter.hit_multi_requests            0                       # Number of requests hitting in the snoop filter with multiple (>1) holders of the requested data.
system.tol3bus.snoop_filter.hit_multi_snoops            0                       # Number of snoops hitting in the snoop filter with multiple (>1) holders of the requested data.
system.tol3bus.snoop_filter.hit_single_requests     13546014                       # Number of requests hitting in the snoop filter with a single holder of the requested data.
system.tol3bus.snoop_filter.hit_single_snoops        46310                       # Number of snoops hitting in the snoop filter with a single holder of the requested data.
system.tol3bus.snoop_filter.tot_requests     27091919                       # Total number of requests made to the snoop filter.
system.tol3bus.snoop_filter.tot_snoops          46310                       # Total number of snoops made to the snoop filter.
system.membus.trans_dist::ReadResp             548543                       # Transaction distribution
system.membus.trans_dist::WritebackDirty       541522                       # Transaction distribution
system.membus.trans_dist::CleanEvict           134332                       # Transaction distribution
system.membus.trans_dist::UpgradeReq                1                       # Transaction distribution
system.membus.trans_dist::ReadExReq            127276                       # Transaction distribution
system.membus.trans_dist::ReadExResp           127276                       # Transaction distribution
system.membus.trans_dist::ReadSharedReq        548543                       # Transaction distribution
system.membus.pkt_count_system.l3.mem_side::system.mem_ctrls.port      2027493                       # Packet count per connected master and slave (bytes)
system.membus.pkt_count_system.l3.mem_side::total      2027493                       # Packet count per connected master and slave (bytes)
system.membus.pkt_count::total                2027493                       # Packet count per connected master and slave (bytes)
system.membus.pkt_size_system.l3.mem_side::system.mem_ctrls.port     77909824                       # Cumulative packet size per connected master and slave (bytes)
system.membus.pkt_size_system.l3.mem_side::total     77909824                       # Cumulative packet size per connected master and slave (bytes)
system.membus.pkt_size::total                77909824                       # Cumulative packet size per connected master and slave (bytes)
system.membus.snoops                                0                       # Total snoops (count)
system.membus.snoopTraffic                          0                       # Total snoop traffic (bytes)
system.membus.snoop_fanout::samples            675820                       # Request fanout histogram
system.membus.snoop_fanout::mean                    0                       # Request fanout histogram
system.membus.snoop_fanout::stdev                   0                       # Request fanout histogram
system.membus.snoop_fanout::underflows              0      0.00%      0.00% # Request fanout histogram
system.membus.snoop_fanout::0                  675820    100.00%    100.00% # Request fanout histogram
system.membus.snoop_fanout::1                       0      0.00%    100.00% # Request fanout histogram
system.membus.snoop_fanout::overflows               0      0.00%    100.00% # Request fanout histogram
system.membus.snoop_fanout::min_value               0                       # Request fanout histogram
system.membus.snoop_fanout::max_value               0                       # Request fanout histogram
system.membus.snoop_fanout::total              675820                       # Request fanout histogram
system.membus.reqLayer2.occupancy          3732831000                       # Layer occupancy (ticks)
system.membus.reqLayer2.utilization               0.4                       # Layer utilization (%)
system.membus.respLayer1.occupancy         3634597000                       # Layer occupancy (ticks)
system.membus.respLayer1.utilization              0.4                       # Layer utilization (%)
system.membus.power_state.pwrStateResidencyTicks::UNDEFINED 2358767059000                       # Cumulative time (in ticks) in various power states
system.switch_cpus_1.dtb.walker.power_state.pwrStateResidencyTicks::UNDEFINED 2358767059000                       # Cumulative time (in ticks) in various power states
system.switch_cpus_1.itb.walker.power_state.pwrStateResidencyTicks::UNDEFINED 2358767059000                       # Cumulative time (in ticks) in various power states
system.switch_cpus_1.power_state.pwrStateResidencyTicks::OFF 2358767059000                       # Cumulative time (in ticks) in various power states
system.switch_cpus.dtb.walker.power_state.pwrStateResidencyTicks::UNDEFINED 2358767059000                       # Cumulative time (in ticks) in various power states
system.switch_cpus.itb.walker.power_state.pwrStateResidencyTicks::UNDEFINED 2358767059000                       # Cumulative time (in ticks) in various power states
system.switch_cpus.power_state.numTransitions            1                       # Number of power state transitions
system.switch_cpus.power_state.pwrStateResidencyTicks::OFF 2358767059000                       # Cumulative time (in ticks) in various power states
system.tol2bus.trans_dist::ReadResp          22371190                       # Transaction distribution
system.tol2bus.trans_dist::WritebackDirty      3621972                       # Transaction distribution
system.tol2bus.trans_dist::WritebackClean      1235153                       # Transaction distribution
system.tol2bus.trans_dist::CleanEvict        31446996                       # Transaction distribution
system.tol2bus.trans_dist::UpgradeReq          118779                       # Transaction distribution
system.tol2bus.trans_dist::UpgradeResp         118779                       # Transaction distribution
system.tol2bus.trans_dist::ReadExReq           257512                       # Transaction distribution
system.tol2bus.trans_dist::ReadExResp          257512                       # Transaction distribution
system.tol2bus.trans_dist::ReadCleanReq       1235183                       # Transaction distribution
system.tol2bus.trans_dist::ReadSharedReq     21136007                       # Transaction distribution
system.tol2bus.pkt_count_system.cpu.icache.mem_side::system.l2.cpu_side      3705502                       # Packet count per connected master and slave (bytes)
system.tol2bus.pkt_count_system.cpu.dcache.mem_side::system.l2.cpu_side     64418115                       # Packet count per connected master and slave (bytes)
system.tol2bus.pkt_count::total              68123617                       # Packet count per connected master and slave (bytes)
system.tol2bus.pkt_size_system.cpu.icache.mem_side::system.l2.cpu_side    158100416                       # Cumulative packet size per connected master and slave (bytes)
system.tol2bus.pkt_size_system.cpu.dcache.mem_side::system.l2.cpu_side   1475758272                       # Cumulative packet size per connected master and slave (bytes)
system.tol2bus.pkt_size::total             1633858688                       # Cumulative packet size per connected master and slave (bytes)
system.tol2bus.snoops                        13675466                       # Total snoops (count)
system.tol2bus.snoopTraffic                 125234240                       # Total snoop traffic (bytes)
system.tol2bus.snoop_fanout::samples         36422930                       # Request fanout histogram
system.tol2bus.snoop_fanout::mean            0.003278                       # Request fanout histogram
system.tol2bus.snoop_fanout::stdev           0.057169                       # Request fanout histogram
system.tol2bus.snoop_fanout::underflows             0      0.00%      0.00% # Request fanout histogram
system.tol2bus.snoop_fanout::0               36303576     99.67%     99.67% # Request fanout histogram
system.tol2bus.snoop_fanout::1                 119328      0.33%    100.00% # Request fanout histogram
system.tol2bus.snoop_fanout::2                     26      0.00%    100.00% # Request fanout histogram
system.tol2bus.snoop_fanout::3                      0      0.00%    100.00% # Request fanout histogram
system.tol2bus.snoop_fanout::4                      0      0.00%    100.00% # Request fanout histogram
system.tol2bus.snoop_fanout::overflows              0      0.00%    100.00% # Request fanout histogram
system.tol2bus.snoop_fanout::min_value              0                       # Request fanout histogram
system.tol2bus.snoop_fanout::max_value              2                       # Request fanout histogram
system.tol2bus.snoop_fanout::total           36422930                       # Request fanout histogram
system.tol2bus.reqLayer0.occupancy        25588433500                       # Layer occupancy (ticks)
system.tol2bus.reqLayer0.utilization              2.7                       # Layer utilization (%)
system.tol2bus.respLayer1.occupancy       32150059216                       # Layer occupancy (ticks)
system.tol2bus.respLayer1.utilization             3.5                       # Layer utilization (%)
system.tol2bus.respLayer0.occupancy        1853272003                       # Layer occupancy (ticks)
system.tol2bus.respLayer0.utilization             0.2                       # Layer utilization (%)
system.tol2bus.power_state.pwrStateResidencyTicks::UNDEFINED 2358767059000                       # Cumulative time (in ticks) in various power states
system.voltage_domain.voltage                       1                       # Voltage in Volts
system.clk_domain.clock                          1000                       # Clock period in ticks
system.l2.demand_hits::.switch_cpus_1.inst      1194126                       # number of demand (read+write) hits
system.l2.demand_hits::.switch_cpus_1.data      7888652                       # number of demand (read+write) hits
system.l2.demand_hits::total                  9082778                       # number of demand (read+write) hits
system.l2.overall_hits::.switch_cpus_1.inst      1194126                       # number of overall hits
system.l2.overall_hits::.switch_cpus_1.data      7888652                       # number of overall hits
system.l2.overall_hits::total                 9082778                       # number of overall hits
system.l2.demand_misses::.switch_cpus_1.inst        41040                       # number of demand (read+write) misses
system.l2.demand_misses::.switch_cpus_1.data     13504867                       # number of demand (read+write) misses
system.l2.demand_misses::total               13545907                       # number of demand (read+write) misses
system.l2.overall_misses::.switch_cpus_1.inst        41040                       # number of overall misses
system.l2.overall_misses::.switch_cpus_1.data     13504867                       # number of overall misses
system.l2.overall_misses::total              13545907                       # number of overall misses
system.l2.demand_miss_latency::.switch_cpus_1.inst    990310000                       # number of demand (read+write) miss cycles
system.l2.demand_miss_latency::.switch_cpus_1.data 349748248000                       # number of demand (read+write) miss cycles
system.l2.demand_miss_latency::total     350738558000                       # number of demand (read+write) miss cycles
system.l2.overall_miss_latency::.switch_cpus_1.inst    990310000                       # number of overall miss cycles
system.l2.overall_miss_latency::.switch_cpus_1.data 349748248000                       # number of overall miss cycles
system.l2.overall_miss_latency::total    350738558000                       # number of overall miss cycles
system.l2.demand_accesses::.switch_cpus_1.inst      1235166                       # number of demand (read+write) accesses
system.l2.demand_accesses::.switch_cpus_1.data     21393519                       # number of demand (read+write) accesses
system.l2.demand_accesses::total             22628685                       # number of demand (read+write) accesses
system.l2.overall_accesses::.switch_cpus_1.inst      1235166                       # number of overall (read+write) accesses
system.l2.overall_accesses::.switch_cpus_1.data     21393519                       # number of overall (read+write) accesses
system.l2.overall_accesses::total            22628685                       # number of overall (read+write) accesses
system.l2.demand_miss_rate::.switch_cpus_1.inst     0.033226                       # miss rate for demand accesses
[...]
system.cpu.dcache.demand_mshr_hits::.switch_cpus_1.data     16106703                       # number of demand (read+write) MSHR hits
system.cpu.dcache.demand_mshr_hits::total     16106736                       # number of demand (read+write) MSHR hits
system.cpu.dcache.overall_mshr_hits::.switch_cpus.data           33                       # number of overall MSHR hits
system.cpu.dcache.overall_mshr_hits::.switch_cpus_1.data     16106703                       # number of overall MSHR hits
system.cpu.dcache.overall_mshr_hits::total     16106736                       # number of overall MSHR hits
system.cpu.dcache.demand_mshr_misses::.switch_cpus.data       354787                       # number of demand (read+write) MSHR misses
system.cpu.dcache.demand_mshr_misses::.switch_cpus_1.data     21497997                       # number of demand (read+write) MSHR misses
system.cpu.dcache.demand_mshr_misses::total     21852784                       # number of demand (read+write) MSHR misses
system.cpu.dcache.overall_mshr_misses::.switch_cpus.data       367647                       # number of overall MSHR misses
system.cpu.dcache.overall_mshr_misses::.switch_cpus_1.data     21512190                       # number of overall MSHR misses
system.cpu.dcache.overall_mshr_misses::total     21879837                       # number of overall MSHR misses
system.cpu.dcache.demand_mshr_miss_latency::.switch_cpus.data  21825672000                       # number of demand (read+write) MSHR miss cycles
system.cpu.dcache.demand_mshr_miss_latency::.switch_cpus_1.data 414722934770                       # number of demand (read+write) MSHR miss cycles
system.cpu.dcache.demand_mshr_miss_latency::total 436548606770                       # number of demand (read+write) MSHR miss cycles
system.cpu.dcache.overall_mshr_miss_latency::.switch_cpus.data  22460749000                       # number of overall MSHR miss cycles
system.cpu.dcache.overall_mshr_miss_latency::.switch_cpus_1.data 416213104270                       # number of overall MSHR miss cycles
system.cpu.dcache.overall_mshr_miss_latency::total 438673853270                       # number of overall MSHR miss cycles
system.cpu.dcache.demand_mshr_miss_rate::.switch_cpus.data     0.010547                       # mshr miss rate for demand accesses
system.cpu.dcache.demand_mshr_miss_rate::.switch_cpus_1.data     0.057483                       # mshr miss rate for demand accesses
system.cpu.dcache.demand_mshr_miss_rate::total     0.028769                       # mshr miss rate for demand accesses
system.cpu.dcache.overall_mshr_miss_rate::.switch_cpus.data     0.010921                       # mshr miss rate for overall accesses
system.cpu.dcache.overall_mshr_miss_rate::.switch_cpus_1.data     0.057468                       # mshr miss rate for overall accesses
system.cpu.dcache.overall_mshr_miss_rate::total     0.028784                       # mshr miss rate for overall accesses
system.cpu.dcache.demand_avg_mshr_miss_latency::.switch_cpus.data 61517.676803                       # average overall mshr miss latency
system.cpu.dcache.demand_avg_mshr_miss_latency::.switch_cpus_1.data 19291.236052                       # average overall mshr miss latency
system.cpu.dcache.demand_avg_mshr_miss_latency::total 19976.795944                       # average overall mshr miss latency
system.cpu.dcache.overall_avg_mshr_miss_latency::.switch_cpus.data 61093.247055                       # average overall mshr miss latency
system.cpu.dcache.overall_avg_mshr_miss_latency::.switch_cpus_1.data 19347.779295                       # average overall mshr miss latency
system.cpu.dcache.overall_avg_mshr_miss_latency::total 20049.228578                       # average overall mshr miss latency
system.cpu.dcache.replacements               27975037                       # number of replacements
system.cpu.dcache.ReadReq_hits::.cpu.data    206162858                       # number of ReadReq hits
system.cpu.dcache.ReadReq_hits::.switch_cpus.data     19895449                       # number of ReadReq hits
system.cpu.dcache.ReadReq_hits::.switch_cpus_1.data    234978891                       # number of ReadReq hits
system.cpu.dcache.ReadReq_hits::total       461037198                       # number of ReadReq hits
system.cpu.dcache.ReadReq_misses::.cpu.data      5757557                       # number of ReadReq misses
system.cpu.dcache.ReadReq_misses::.switch_cpus.data       234854                       # number of ReadReq misses
system.cpu.dcache.ReadReq_misses::.switch_cpus_1.data     37228080                       # number of ReadReq misses
system.cpu.dcache.ReadReq_misses::total      43220491                       # number of ReadReq misses
system.cpu.dcache.ReadReq_miss_latency::.switch_cpus.data  15550624500                       # number of ReadReq miss cycles
system.cpu.dcache.ReadReq_miss_latency::.switch_cpus_1.data 721535321500                       # number of ReadReq miss cycles
system.cpu.dcache.ReadReq_miss_latency::total 737085946000                       # number of ReadReq miss cycles
system.cpu.dcache.ReadReq_accesses::.cpu.data    211920415                       # number of ReadReq accesses(hits+misses)
system.cpu.dcache.ReadReq_accesses::.switch_cpus.data     20130303                       # number of ReadReq accesses(hits+misses)
system.cpu.dcache.ReadReq_accesses::.switch_cpus_1.data    272206971                       # number of ReadReq accesses(hits+misses)
system.cpu.dcache.ReadReq_accesses::total    504257689                       # number of ReadReq accesses(hits+misses)
system.cpu.dcache.ReadReq_miss_rate::.cpu.data     0.027168                       # miss rate for ReadReq accesses
system.cpu.dcache.ReadReq_miss_rate::.switch_cpus.data     0.011667                       # miss rate for ReadReq accesses
system.cpu.dcache.ReadReq_miss_rate::.switch_cpus_1.data     0.136764                       # miss rate for ReadReq accesses
system.cpu.dcache.ReadReq_miss_rate::total     0.085711                       # miss rate for ReadReq accesses
system.cpu.dcache.ReadReq_avg_miss_latency::.switch_cpus.data 66214.007426                       # average ReadReq miss latency
system.cpu.dcache.ReadReq_avg_miss_latency::.switch_cpus_1.data 19381.480901                       # average ReadReq miss latency
system.cpu.dcache.ReadReq_avg_miss_latency::total 17054.085434                       # average ReadReq miss latency
system.cpu.dcache.ReadReq_mshr_hits::.switch_cpus.data           33                       # number of ReadReq MSHR hits
system.cpu.dcache.ReadReq_mshr_hits::.switch_cpus_1.data     16106260                       # number of ReadReq MSHR hits
system.cpu.dcache.ReadReq_mshr_hits::total     16106293                       # number of ReadReq MSHR hits
system.cpu.dcache.ReadReq_mshr_misses::.switch_cpus.data       234821                       # number of ReadReq MSHR misses
system.cpu.dcache.ReadReq_mshr_misses::.switch_cpus_1.data     21121820                       # number of ReadReq MSHR misses
system.cpu.dcache.ReadReq_mshr_misses::total     21356641                       # number of ReadReq MSHR misses
system.cpu.dcache.ReadReq_mshr_miss_latency::.switch_cpus.data  15430921000                       # number of ReadReq MSHR miss cycles
system.cpu.dcache.ReadReq_mshr_miss_latency::.switch_cpus_1.data 399747047500                       # number of ReadReq MSHR miss cycles
system.cpu.dcache.ReadReq_mshr_miss_latency::total 415177968500                       # number of ReadReq MSHR miss cycles
system.cpu.dcache.ReadReq_mshr_miss_rate::.switch_cpus.data     0.011665                       # mshr miss rate for ReadReq accesses
system.cpu.dcache.ReadReq_mshr_miss_rate::.switch_cpus_1.data     0.077595                       # mshr miss rate for ReadReq accesses
system.cpu.dcache.ReadReq_mshr_miss_rate::total     0.042353                       # mshr miss rate for ReadReq accesses
system.cpu.dcache.ReadReq_avg_mshr_miss_latency::.switch_cpus.data 65713.547766                       # average ReadReq mshr miss latency
system.cpu.dcache.ReadReq_avg_mshr_miss_latency::.switch_cpus_1.data 18925.786107                       # average ReadReq mshr miss latency
system.cpu.dcache.ReadReq_avg_mshr_miss_latency::total 19440.227913                       # average ReadReq mshr miss latency
system.cpu.dcache.WriteReq_hits::.cpu.data    139635617                       # number of WriteReq hits
system.cpu.dcache.WriteReq_hits::.switch_cpus.data     13387207                       # number of WriteReq hits
system.cpu.dcache.WriteReq_hits::.switch_cpus_1.data    101408006                       # number of WriteReq hits
system.cpu.dcache.WriteReq_hits::total      254430830                       # number of WriteReq hits
system.cpu.dcache.WriteReq_misses::.cpu.data       415673                       # number of WriteReq misses
system.cpu.dcache.WriteReq_misses::.switch_cpus.data       119966                       # number of WriteReq misses
system.cpu.dcache.WriteReq_misses::.switch_cpus_1.data       376620                       # number of WriteReq misses
system.cpu.dcache.WriteReq_misses::total       912259                       # number of WriteReq misses
system.cpu.dcache.WriteReq_miss_latency::.switch_cpus.data   6454734000                       # number of WriteReq miss cycles
system.cpu.dcache.WriteReq_miss_latency::.switch_cpus_1.data  15165422769                       # number of WriteReq miss cycles
system.cpu.dcache.WriteReq_miss_latency::total  21620156769                       # number of WriteReq miss cycles
system.cpu.dcache.WriteReq_accesses::.cpu.data    140051290                       # number of WriteReq accesses(hits+misses)
system.cpu.dcache.WriteReq_accesses::.switch_cpus.data     13507173                       # number of WriteReq accesses(hits+misses)
system.cpu.dcache.WriteReq_accesses::.switch_cpus_1.data    101784626                       # number of WriteReq accesses(hits+misses)
system.cpu.dcache.WriteReq_accesses::total    255343089                       # number of WriteReq accesses(hits+misses)
system.cpu.dcache.WriteReq_miss_rate::.cpu.data     0.002968                       # miss rate for WriteReq accesses
system.cpu.dcache.WriteReq_miss_rate::.switch_cpus.data     0.008882                       # miss rate for WriteReq accesses
system.cpu.dcache.WriteReq_miss_rate::.switch_cpus_1.data     0.003700                       # miss rate for WriteReq accesses
system.cpu.dcache.WriteReq_miss_rate::total     0.003573                       # miss rate for WriteReq accesses
system.cpu.dcache.WriteReq_avg_miss_latency::.switch_cpus.data 53804.694663                       # average WriteReq miss latency
system.cpu.dcache.WriteReq_avg_miss_latency::.switch_cpus_1.data 40267.173196                       # average WriteReq miss latency
system.cpu.dcache.WriteReq_avg_miss_latency::total 23699.581773                       # average WriteReq miss latency
system.cpu.dcache.WriteReq_mshr_hits::.switch_cpus_1.data          443                       # number of WriteReq MSHR hits
system.cpu.dcache.WriteReq_mshr_hits::total          443                       # number of WriteReq MSHR hits
system.cpu.dcache.WriteReq_mshr_misses::.switch_cpus.data       119966                       # number of WriteReq MSHR misses
system.cpu.dcache.WriteReq_mshr_misses::.switch_cpus_1.data       376177                       # number of WriteReq MSHR misses
system.cpu.dcache.WriteReq_mshr_misses::total       496143                       # number of WriteReq MSHR misses
system.cpu.dcache.WriteReq_mshr_miss_latency::.switch_cpus.data   6394751000                       # number of WriteReq MSHR miss cycles
system.cpu.dcache.WriteReq_mshr_miss_latency::.switch_cpus_1.data  14975887270                       # number of WriteReq MSHR miss cycles
system.cpu.dcache.WriteReq_mshr_miss_latency::total  21370638270                       # number of WriteReq MSHR miss cycles
system.cpu.dcache.WriteReq_mshr_miss_rate::.switch_cpus.data     0.008882                       # mshr miss rate for WriteReq accesses
system.cpu.dcache.WriteReq_mshr_miss_rate::.switch_cpus_1.data     0.003696                       # mshr miss rate for WriteReq accesses
system.cpu.dcache.WriteReq_mshr_miss_rate::total     0.001943                       # mshr miss rate for WriteReq accesses
system.cpu.dcache.WriteReq_avg_mshr_miss_latency::.switch_cpus.data 53304.694663                       # average WriteReq mshr miss latency
system.cpu.dcache.WriteReq_avg_mshr_miss_latency::.switch_cpus_1.data 39810.746723                       # average WriteReq mshr miss latency
system.cpu.dcache.WriteReq_avg_mshr_miss_latency::total 43073.545873                       # average WriteReq mshr miss latency
system.cpu.dcache.SoftPFReq_hits::.cpu.data        90130                       # number of SoftPFReq hits
system.cpu.dcache.SoftPFReq_hits::.switch_cpus.data        12557                       # number of SoftPFReq hits
system.cpu.dcache.SoftPFReq_hits::.switch_cpus_1.data       277791                       # number of SoftPFReq hits
system.cpu.dcache.SoftPFReq_hits::total        380478                       # number of SoftPFReq hits
system.cpu.dcache.SoftPFReq_misses::.cpu.data        88064                       # number of SoftPFReq misses
system.cpu.dcache.SoftPFReq_misses::.switch_cpus.data        13223                       # number of SoftPFReq misses
system.cpu.dcache.SoftPFReq_misses::.switch_cpus_1.data        63395                       # number of SoftPFReq misses
system.cpu.dcache.SoftPFReq_misses::total       164682                       # number of SoftPFReq misses
system.cpu.dcache.SoftPFReq_accesses::.cpu.data       178194                       # number of SoftPFReq accesses(hits+misses)
system.cpu.dcache.SoftPFReq_accesses::.switch_cpus.data        25780                       # number of SoftPFReq accesses(hits+misses)
system.cpu.dcache.SoftPFReq_accesses::.switch_cpus_1.data       341186                       # number of SoftPFReq accesses(hits+misses)
system.cpu.dcache.SoftPFReq_accesses::total       545160                       # number of SoftPFReq accesses(hits+misses)
system.cpu.dcache.SoftPFReq_miss_rate::.cpu.data     0.494203                       # miss rate for SoftPFReq accesses
system.cpu.dcache.SoftPFReq_miss_rate::.switch_cpus.data     0.512917                       # miss rate for SoftPFReq accesses
system.cpu.dcache.SoftPFReq_miss_rate::.switch_cpus_1.data     0.185808                       # miss rate for SoftPFReq accesses
system.cpu.dcache.SoftPFReq_miss_rate::total     0.302080                       # miss rate for SoftPFReq accesses
system.cpu.dcache.SoftPFReq_mshr_misses::.switch_cpus.data        12860                       # number of SoftPFReq MSHR misses
system.cpu.dcache.SoftPFReq_mshr_misses::.switch_cpus_1.data        14193                       # number of SoftPFReq MSHR misses
system.cpu.dcache.SoftPFReq_mshr_misses::total        27053                       # number of SoftPFReq MSHR misses
system.cpu.dcache.SoftPFReq_mshr_miss_latency::.switch_cpus.data    635077000                       # number of SoftPFReq MSHR miss cycles
system.cpu.dcache.SoftPFReq_mshr_miss_latency::.switch_cpus_1.data   1490169500                       # number of SoftPFReq MSHR miss cycles
system.cpu.dcache.SoftPFReq_mshr_miss_latency::total   2125246500                       # number of SoftPFReq MSHR miss cycles
system.cpu.dcache.SoftPFReq_mshr_miss_rate::.switch_cpus.data     0.498836                       # mshr miss rate for SoftPFReq accesses
system.cpu.dcache.SoftPFReq_mshr_miss_rate::.switch_cpus_1.data     0.041599                       # mshr miss rate for SoftPFReq accesses
system.cpu.dcache.SoftPFReq_mshr_miss_rate::total     0.049624                       # mshr miss rate for SoftPFReq accesses
system.cpu.dcache.SoftPFReq_avg_mshr_miss_latency::.switch_cpus.data 49383.903577                       # average SoftPFReq mshr miss latency
system.cpu.dcache.SoftPFReq_avg_mshr_miss_latency::.switch_cpus_1.data 104993.271331                       # average SoftPFReq mshr miss latency
system.cpu.dcache.SoftPFReq_avg_mshr_miss_latency::total 78558.625661                       # average SoftPFReq mshr miss latency
system.cpu.dcache.power_state.pwrStateResidencyTicks::UNDEFINED 2358767059000                       # Cumulative time (in ticks) in various power states
system.cpu.dcache.tags.tagsinuse           511.996363                       # Cycle average of tags in use
system.cpu.dcache.tags.total_refs           743996949                       # Total number of references to valid blocks.
system.cpu.dcache.tags.sampled_refs          27975549                       # Sample count of references to valid blocks.
system.cpu.dcache.tags.avg_refs             26.594543                       # Average number of references to valid blocks.
system.cpu.dcache.tags.warmup_cycle              1500                       # Cycle when the warmup percentage was hit.
system.cpu.dcache.tags.occ_blocks::.cpu.data   288.759297                       # Average occupied blocks per requestor
system.cpu.dcache.tags.occ_blocks::.switch_cpus.data    21.716639                       # Average occupied blocks per requestor
system.cpu.dcache.tags.occ_blocks::.switch_cpus_1.data   201.520427                       # Average occupied blocks per requestor
system.cpu.dcache.tags.occ_percent::.cpu.data     0.563983                       # Average percentage of cache occupancy
system.cpu.dcache.tags.occ_percent::.switch_cpus.data     0.042415                       # Average percentage of cache occupancy
system.cpu.dcache.tags.occ_percent::.switch_cpus_1.data     0.393595                       # Average percentage of cache occupancy
system.cpu.dcache.tags.occ_percent::total     0.999993                       # Average percentage of cache occupancy
system.cpu.dcache.tags.occ_task_id_blocks::1024          512                       # Occupied blocks per task id
system.cpu.dcache.tags.age_task_id_blocks_1024::0          320                       # Occupied blocks per task id
system.cpu.dcache.tags.age_task_id_blocks_1024::1          192                       # Occupied blocks per task id
system.cpu.dcache.tags.occ_task_id_percent::1024            1                       # Percentage of cache occupancy per task id
system.cpu.dcache.tags.tag_accesses        3068559301                       # Number of tag accesses
system.cpu.dcache.tags.data_accesses       3068559301                       # Number of data accesses
system.cpu.dcache.tags.cache_friendly               0                       # Number of cache friendly accesses
system.cpu.dcache.tags.cache_averse         743996949                       # Number of cache averse accesses
system.cpu.dcache.tags.cache_friendly_victims            0                       # Number of cache friendly victims
system.cpu.dcache.tags.cache_averse_victims     27975549                       # Number of cache averse victims
system.cpu.dcache.tags.OPT_hits                     0                       # Number of OPT hits
system.cpu.dcache.tags.OPT_misses                   0                       # Number of OPT misses
system.cpu.dcache.tags.OPT_nan              760145938                       # Number of OPT nan
system.cpu.dcache.tags.power_state.pwrStateResidencyTicks::UNDEFINED 2358767059000                       # Cumulative time (in ticks) in various power states
system.cpu.power_state.numTransitions               2                       # Number of power state transitions
system.cpu.power_state.pwrStateResidencyTicks::ON 1326847014000                       # Cumulative time (in ticks) in various power states
system.cpu.power_state.pwrStateResidencyTicks::OFF 1031920045000                       # Cumulative time (in ticks) in various power states

---------- End Simulation Statistics   ----------
