
---------- Begin Simulation Statistics ----------
final_tick                               574225989500                       # Number of ticks from beginning of simulation (restored from checkpoints and never reset)
host_inst_rate                                 262581                       # Simulator instruction rate (inst/s)
host_mem_usage                                 822408                       # Number of bytes of host memory used
host_op_rate                                   479675                       # Simulator op (including micro ops) rate (op/s)
host_seconds                                  2323.09                       # Real time elapsed on the host
host_tick_rate                              175501983                       # Simulator tick rate (ticks/s)
sim_freq                                 1000000000000                       # Frequency of simulated ticks
sim_insts                                   610000004                       # Number of instructions simulated
sim_ops                                    1114327964                       # Number of ops (including micro ops) simulated
sim_seconds                                  0.407707                       # Number of seconds simulated
sim_ticks                                407707047500                       # Number of ticks simulated
system.cpu.committedInsts                           0                       # Number of instructions committed
system.cpu.committedOps                             0                       # Number of ops (including micro ops) committed
system.cpu.dtb.rdAccesses                           0                       # TLB accesses on read requests
system.cpu.dtb.rdMisses                             0                       # TLB misses on read requests
system.cpu.dtb.wrAccesses                           0                       # TLB accesses on write requests
system.cpu.dtb.wrMisses                             0                       # TLB misses on write requests
system.cpu.idle_fraction                            0                       # Percentage of idle cycles
system.cpu.itb.rdAccesses                           0                       # TLB accesses on read requests
system.cpu.itb.rdMisses                             0                       # TLB misses on read requests
system.cpu.itb.wrAccesses                           0                       # TLB accesses on write requests
system.cpu.itb.wrMisses                             0                       # TLB misses on write requests
system.cpu.not_idle_fraction                        1                       # Percentage of non-idle cycles
system.cpu.numCycles                                0                       # number of cpu cycles simulated
system.cpu.numWorkItemsCompleted                    0                       # number of work items this cpu completed
system.cpu.numWorkItemsStarted                      0                       # number of work items this cpu started
system.cpu.num_busy_cycles                          0                       # Number of busy cycles
system.cpu.num_conditional_control_insts            0                       # number of instructions that are conditional controls
system.cpu.num_fp_alu_accesses                      0                       # Number of float alu accesses
system.cpu.num_fp_insts                             0                       # number of float instructions
system.cpu.num_fp_register_reads                    0                       # number of times the floating registers were read
system.cpu.num_fp_register_writes                   0                       # number of times the floating registers were written
system.cpu.num_func_calls                           0                       # number of times a function call or return occured
system.cpu.num_idle_cycles                          0                       # Number of idle cycles
system.cpu.num_int_alu_accesses                     0                       # Number of integer alu accesses
system.cpu.num_int_insts                            0                       # number of integer instructions
system.cpu.num_int_register_reads                   0                       # number of times the integer registers were read
system.cpu.num_int_register_writes                  0                       # number of times the integer registers were written
system.cpu.num_load_insts                           0                       # Number of load instructions
system.cpu.num_mem_refs                             0                       # number of memory refs
system.cpu.num_store_insts                          0                       # Number of store instructions
system.cpu.num_vec_alu_accesses                     0                       # Number of vector alu accesses
system.cpu.num_vec_insts                            0                       # number of vector instructions
system.cpu.num_vec_register_reads                   0                       # number of times the vector registers were read
system.cpu.num_vec_register_writes                  0                       # number of times the vector registers were written
system.cpu.op_class::No_OpClass                     0                       # Class of executed instruction
system.cpu.op_class::IntAlu                         0                       # Class of executed instruction
system.cpu.op_class::IntMult                        0                       # Class of executed instruction
system.cpu.op_class::IntDiv                         0                       # Class of executed instruction
system.cpu.op_class::FloatAdd                       0                       # Class of executed instruction
system.cpu.op_class::FloatCmp                       0                       # Class of executed instruction
system.cpu.op_class::FloatCvt                       0                       # Class of executed instruction
system.cpu.op_class::FloatMult                      0                       # Class of executed instruction
system.cpu.op_class::FloatMultAcc                   0                       # Class of executed instruction
system.cpu.op_class::FloatDiv                       0                       # Class of executed instruction
system.cpu.op_class::FloatMisc                      0                       # Class of executed instruction
system.cpu.op_class::FloatSqrt                      0                       # Class of executed instruction
system.cpu.op_class::SimdAdd                        0                       # Class of executed instruction
system.cpu.op_class::SimdAddAcc                     0                       # Class of executed instruction
system.cpu.op_class::SimdAlu                        0                       # Class of executed instruction
system.cpu.op_class::SimdCmp                        0                       # Class of executed instruction
system.cpu.op_class::SimdCvt                        0                       # Class of executed instruction
system.cpu.op_class::SimdMisc                       0                       # Class of executed instruction
system.cpu.op_class::SimdMult                       0                       # Class of executed instruction
system.cpu.op_class::SimdMultAcc                    0                       # Class of executed instruction
system.cpu.op_class::SimdShift                      0                       # Class of executed instruction
system.cpu.op_class::SimdShiftAcc                   0                       # Class of executed instruction
system.cpu.op_class::SimdDiv                        0                       # Class of executed instruction
system.cpu.op_class::SimdSqrt                       0                       # Class of executed instruction
system.cpu.op_class::SimdFloatAdd                   0                       # Class of executed instruction
system.cpu.op_class::SimdFloatAlu                   0                       # Class of executed instruction
system.cpu.op_class::SimdFloatCmp                   0                       # Class of executed instruction
system.cpu.op_class::SimdFloatCvt                   0                       # Class of executed instruction
system.cpu.op_class::SimdFloatDiv                   0                       # Class of executed instruction
system.cpu.op_class::SimdFloatMisc                  0                       # Class of executed instruction
system.cpu.op_class::SimdFloatMult                  0                       # Class of executed instruction
system.cpu.op_class::SimdFloatMultAcc               0                       # Class of executed instruction
system.cpu.op_class::SimdFloatSqrt                  0                       # Class of executed instruction
system.cpu.op_class::SimdReduceAdd                  0                       # Class of executed instruction
system.cpu.op_class::SimdReduceAlu                  0                       # Class of executed instruction
system.cpu.op_class::SimdReduceCmp                  0                       # Class of executed instruction
system.cpu.op_class::SimdFloatReduceAdd             0                       # Class of executed instruction
system.cpu.op_class::SimdFloatReduceCmp             0                       # Class of executed instruction
system.cpu.op_class::SimdAes                        0                       # Class of executed instruction
system.cpu.op_class::SimdAesMix                     0                       # Class of executed instruction
system.cpu.op_class::SimdSha1Hash                   0                       # Class of executed instruction
system.cpu.op_class::SimdSha1Hash2                  0                       # Class of executed instruction
system.cpu.op_class::SimdSha256Hash                 0                       # Class of executed instruction
system.cpu.op_class::SimdSha256Hash2                0                       # Class of executed instruction
system.cpu.op_class::SimdShaSigma2                  0                       # Class of executed instruction
system.cpu.op_class::SimdShaSigma3                  0                       # Class of executed instruction
system.cpu.op_class::SimdPredAlu                    0                       # Class of executed instruction
system.cpu.op_class::MemRead                        0                       # Class of executed instruction
system.cpu.op_class::MemWrite                       0                       # Class of executed instruction
system.cpu.op_class::FloatMemRead                   0                       # Class of executed instruction
system.cpu.op_class::FloatMemWrite                  0                       # Class of executed instruction
system.cpu.op_class::IprAccess                      0                       # Class of executed instruction
system.cpu.op_class::InstPrefetch                   0                       # Class of executed instruction
system.cpu.op_class::total                          0                       # Class of executed instruction
system.cpu.workload.numSyscalls                    10                       # Number of system calls
system.membus.snoop_filter.hit_multi_requests            0                       # Number of requests hitting in the snoop filter with multiple (>1) holders of the requested data.
system.membus.snoop_filter.hit_multi_snoops            0                       # Number of snoops hitting in the snoop filter with multiple (>1) holders of the requested data.
system.membus.snoop_filter.hit_single_requests      4036027                       # Number of requests hitting in the snoop filter with a single holder of the requested data.
system.membus.snoop_filter.hit_single_snoops            0                       # Number of snoops hitting in the snoop filter with a single holder of the requested data.
system.membus.snoop_filter.tot_requests       8072039                       # Total number of requests made to the snoop filter.
system.membus.snoop_filter.tot_snoops               0                       # Total number of snoops made to the snoop filter.
system.switch_cpus.committedInsts                   0                       # Number of instructions committed
system.switch_cpus.committedOps                     0                       # Number of ops (including micro ops) committed
system.switch_cpus.dtb.rdAccesses                   0                       # TLB accesses on read requests
system.switch_cpus.dtb.rdMisses                     0                       # TLB misses on read requests
system.switch_cpus.dtb.wrAccesses                   0                       # TLB accesses on write requests
system.switch_cpus.dtb.wrMisses                     0                       # TLB misses on write requests
system.switch_cpus.idle_fraction                    0                       # Percentage of idle cycles
system.switch_cpus.itb.rdAccesses                   0                       # TLB accesses on read requests
system.switch_cpus.itb.rdMisses                     0                       # TLB misses on read requests
system.switch_cpus.itb.wrAccesses                   0                       # TLB accesses on write requests
system.switch_cpus.itb.wrMisses                     0                       # TLB misses on write requests
system.switch_cpus.not_idle_fraction                1                       # Percentage of non-idle cycles
system.switch_cpus.numCycles                        0                       # number of cpu cycles simulated
system.switch_cpus.numWorkItemsCompleted            0                       # number of work items this cpu completed
system.switch_cpus.numWorkItemsStarted              0                       # number of work items this cpu started
system.switch_cpus.num_busy_cycles                  0                       # Number of busy cycles
system.switch_cpus.num_conditional_control_insts            0                       # number of instructions that are conditional controls
system.switch_cpus.num_fp_alu_accesses              0                       # Number of float alu accesses
system.switch_cpus.num_fp_insts                     0                       # number of float instructions
system.switch_cpus.num_fp_register_reads            0                       # number of times the floating registers were read
system.switch_cpus.num_fp_register_writes            0                       # number of times the floating registers were written
system.switch_cpus.num_func_calls                   0                       # number of times a function call or return occured
system.switch_cpus.num_idle_cycles                  0                       # Number of idle cycles
system.switch_cpus.num_int_alu_accesses             0                       # Number of integer alu accesses
system.switch_cpus.num_int_insts                    0                       # number of integer instructions
system.switch_cpus.num_int_register_reads            0                       # number of times the integer registers were read
system.switch_cpus.num_int_register_writes            0                       # number of times the integer registers were written
system.switch_cpus.num_load_insts                   0                       # Number of load instructions
system.switch_cpus.num_mem_refs                     0                       # number of memory refs
system.switch_cpus.num_store_insts                  0                       # Number of store instructions
system.switch_cpus.num_vec_alu_accesses             0                       # Number of vector alu accesses
system.switch_cpus.num_vec_insts                    0                       # number of vector instructions
system.switch_cpus.num_vec_register_reads            0                       # number of times the vector registers were read
system.switch_cpus.num_vec_register_writes            0                       # number of times the vector registers were written
system.switch_cpus.op_class::No_OpClass             0                       # Class of executed instruction
system.switch_cpus.op_class::IntAlu                 0                       # Class of executed instruction
system.switch_cpus.op_class::IntMult                0                       # Class of executed instruction
system.switch_cpus.op_class::IntDiv                 0                       # Class of executed instruction
system.switch_cpus.op_class::FloatAdd               0                       # Class of executed instruction
system.switch_cpus.op_class::FloatCmp               0                       # Class of executed instruction
system.switch_cpus.op_class::FloatCvt               0                       # Class of executed instruction
system.switch_cpus.op_class::FloatMult              0                       # Class of executed instruction
system.switch_cpus.op_class::FloatMultAcc            0                       # Class of executed instruction
system.switch_cpus.op_class::FloatDiv               0                       # Class of executed instruction
system.switch_cpus.op_class::FloatMisc              0                       # Class of executed instruction
system.switch_cpus.op_class::FloatSqrt              0                       # Class of executed instruction
system.switch_cpus.op_class::SimdAdd                0                       # Class of executed instruction
system.switch_cpus.op_class::SimdAddAcc             0                       # Class of executed instruction
system.switch_cpus.op_class::SimdAlu                0                       # Class of executed instruction
system.switch_cpus.op_class::SimdCmp                0                       # Class of executed instruction
system.switch_cpus.op_class::SimdCvt                0                       # Class of executed instruction
system.switch_cpus.op_class::SimdMisc               0                       # Class of executed instruction
system.switch_cpus.op_class::SimdMult               0                       # Class of executed instruction
system.switch_cpus.op_class::SimdMultAcc            0                       # Class of executed instruction
system.switch_cpus.op_class::SimdShift              0                       # Class of executed instruction
system.switch_cpus.op_class::SimdShiftAcc            0                       # Class of executed instruction
system.switch_cpus.op_class::SimdDiv                0                       # Class of executed instruction
system.switch_cpus.op_class::SimdSqrt               0                       # Class of executed instruction
system.switch_cpus.op_class::SimdFloatAdd            0                       # Class of executed instruction
system.switch_cpus.op_class::SimdFloatAlu            0                       # Class of executed instruction
system.switch_cpus.op_class::SimdFloatCmp            0                       # Class of executed instruction
system.switch_cpus.op_class::SimdFloatCvt            0                       # Class of executed instruction
system.switch_cpus.op_class::SimdFloatDiv            0                       # Class of executed instruction
system.switch_cpus.op_class::SimdFloatMisc            0                       # Class of executed instruction
system.switch_cpus.op_class::SimdFloatMult            0                       # Class of executed instruction
system.switch_cpus.op_class::SimdFloatMultAcc            0                       # Class of executed instruction
system.switch_cpus.op_class::SimdFloatSqrt            0                       # Class of executed instruction
system.switch_cpus.op_class::SimdReduceAdd            0                       # Class of executed instruction
system.switch_cpus.op_class::SimdReduceAlu            0                       # Class of executed instruction
system.switch_cpus.op_class::SimdReduceCmp            0                       # Class of executed instruction
system.switch_cpus.op_class::SimdFloatReduceAdd            0                       # Class of executed instruction
system.switch_cpus.op_class::SimdFloatReduceCmp            0                       # Class of executed instruction
system.switch_cpus.op_class::SimdAes                0                       # Class of executed instruction
system.switch_cpus.op_class::SimdAesMix             0                       # Class of executed instruction
system.switch_cpus.op_class::SimdSha1Hash            0                       # Class of executed instruction
system.switch_cpus.op_class::SimdSha1Hash2            0                       # Class of executed instruction
system.switch_cpus.op_class::SimdSha256Hash            0                       # Class of executed instruction
system.switch_cpus.op_class::SimdSha256Hash2            0                       # Class of executed instruction
system.switch_cpus.op_class::SimdShaSigma2            0                       # Class of executed instruction
system.switch_cpus.op_class::SimdShaSigma3            0                       # Class of executed instruction
system.switch_cpus.op_class::SimdPredAlu            0                       # Class of executed instruction
system.switch_cpus.op_class::MemRead                0                       # Class of executed instruction
system.switch_cpus.op_class::MemWrite               0                       # Class of executed instruction
system.switch_cpus.op_class::FloatMemRead            0                       # Class of executed instruction
system.switch_cpus.op_class::FloatMemWrite            0                       # Class of executed instruction
system.switch_cpus.op_class::IprAccess              0                       # Class of executed instruction
system.switch_cpus.op_class::InstPrefetch            0                       # Class of executed instruction
system.switch_cpus.op_class::total                  0                       # Class of executed instruction
system.switch_cpus_1.branchPred.BTBCorrect            0                       # Number of correct BTB predictions (this stat may not work properly.
system.switch_cpus_1.branchPred.BTBHitPct          nan                       # BTB Hit Percentage
system.switch_cpus_1.branchPred.BTBHits             0                       # Number of BTB hits
system.switch_cpus_1.branchPred.BTBLookups            0                       # Number of BTB lookups
system.switch_cpus_1.branchPred.RASInCorrect           33                       # Number of incorrect RAS predictions.
system.switch_cpus_1.branchPred.condIncorrect        78733                       # Number of conditional branches incorrect
system.switch_cpus_1.branchPred.condPredicted     62224691                       # Number of conditional branches predicted
system.switch_cpus_1.branchPred.indirectHits     35676581                       # Number of indirect target hits.
system.switch_cpus_1.branchPred.indirectLookups     35727501                       # Number of indirect predictor lookups.
system.switch_cpus_1.branchPred.indirectMisses        50920                       # Number of indirect misses.
system.switch_cpus_1.branchPred.lookups      79940815                       # Number of BP lookups
system.switch_cpus_1.branchPred.usedRAS       8821609                       # Number of times the RAS was used to get a target.
system.switch_cpus_1.branchPredindirectMispredicted        11000                       # Number of mispredicted indirect branches.
system.switch_cpus_1.cc_regfile_reads       386115408                       # number of cc regfile reads
system.switch_cpus_1.cc_regfile_writes      261660804                       # number of cc regfile writes
system.switch_cpus_1.commit.amos                    0                       # Number of atomic instructions committed
system.switch_cpus_1.commit.branchMispredicts        78961                       # The number of times a branch was mispredicted
system.switch_cpus_1.commit.branches         78178083                       # Number of branches committed
system.switch_cpus_1.commit.bw_lim_events     92299181                       # number cycles where commit BW limit reached
system.switch_cpus_1.commit.commitNonSpecStalls           19                       # The number of times commit has been forced to stall to communicate backwards
system.switch_cpus_1.commit.commitSquashedInsts     11955905                       # The number of squashed insts skipped by commit
system.switch_cpus_1.commit.committedInsts    500000001                       # Number of instructions committed
system.switch_cpus_1.commit.committedOps    943521549                       # Number of ops (including micro ops) committed
system.switch_cpus_1.commit.committed_per_cycle::samples    813802395                       # Number of insts commited each cycle
system.switch_cpus_1.commit.committed_per_cycle::mean     1.159399                       # Number of insts commited each cycle
system.switch_cpus_1.commit.committed_per_cycle::stdev     2.634791                       # Number of insts commited each cycle
system.switch_cpus_1.commit.committed_per_cycle::underflows            0      0.00%      0.00% # Number of insts commited each cycle
system.switch_cpus_1.commit.committed_per_cycle::0    646093755     79.39%     79.39% # Number of insts commited each cycle
system.switch_cpus_1.commit.committed_per_cycle::1     30575823      3.76%     83.15% # Number of insts commited each cycle
system.switch_cpus_1.commit.committed_per_cycle::2      9538050      1.17%     84.32% # Number of insts commited each cycle
system.switch_cpus_1.commit.committed_per_cycle::3     14829114      1.82%     86.14% # Number of insts commited each cycle
system.switch_cpus_1.commit.committed_per_cycle::4      7530630      0.93%     87.07% # Number of insts commited each cycle
system.switch_cpus_1.commit.committed_per_cycle::5      2825084      0.35%     87.42% # Number of insts commited each cycle
system.switch_cpus_1.commit.committed_per_cycle::6      4034410      0.50%     87.91% # Number of insts commited each cycle
system.switch_cpus_1.commit.committed_per_cycle::7      6076348      0.75%     88.66% # Number of insts commited each cycle
system.switch_cpus_1.commit.committed_per_cycle::8     92299181     11.34%    100.00% # Number of insts commited each cycle
system.switch_cpus_1.commit.committed_per_cycle::overflows            0      0.00%    100.00% # Number of insts commited each cycle
system.switch_cpus_1.commit.committed_per_cycle::min_value            0                       # Number of insts commited each cycle
system.switch_cpus_1.commit.committed_per_cycle::max_value            8                       # Number of insts commited each cycle
system.switch_cpus_1.commit.committed_per_cycle::total    813802395                       # Number of insts commited each cycle
system.switch_cpus_1.commit.fp_insts        206718488                       # Number of committed floating point instructions.
system.switch_cpus_1.commit.function_calls      8681100                       # Number of function calls committed.
system.switch_cpus_1.commit.int_insts       802686027                       # Number of committed integer instructions.
system.switch_cpus_1.commit.loads           155048978                       # Number of loads committed
system.switch_cpus_1.commit.membars                 0                       # Number of memory barriers committed
system.switch_cpus_1.commit.op_class_0::No_OpClass        53833      0.01%      0.01% # Class of committed instruction
system.switch_cpus_1.commit.op_class_0::IntAlu    619265392     65.63%     65.64% # Class of committed instruction
system.switch_cpus_1.commit.op_class_0::IntMult      7277595      0.77%     66.41% # Class of committed instruction
system.switch_cpus_1.commit.op_class_0::IntDiv           15      0.00%     66.41% # Class of committed instruction
system.switch_cpus_1.commit.op_class_0::FloatAdd     25949053      2.75%     69.16% # Class of committed instruction
system.switch_cpus_1.commit.op_class_0::FloatCmp            0      0.00%     69.16% # Class of committed instruction
system.switch_cpus_1.commit.op_class_0::FloatCvt           16      0.00%     69.16% # Class of committed instruction
system.switch_cpus_1.commit.op_class_0::FloatMult            0      0.00%     69.16% # Class of committed instruction
system.switch_cpus_1.commit.op_class_0::FloatMultAcc            0      0.00%     69.16% # Class of committed instruction
system.switch_cpus_1.commit.op_class_0::FloatDiv            0      0.00%     69.16% # Class of committed instruction
system.switch_cpus_1.commit.op_class_0::FloatMisc            0      0.00%     69.16% # Class of committed instruction
system.switch_cpus_1.commit.op_class_0::FloatSqrt            0      0.00%     69.16% # Class of committed instruction
system.switch_cpus_1.commit.op_class_0::SimdAdd          558      0.00%     69.16% # Class of committed instruction
system.switch_cpus_1.commit.op_class_0::SimdAddAcc            0      0.00%     69.16% # Class of committed instruction
system.switch_cpus_1.commit.op_class_0::SimdAlu      6942074      0.74%     69.90% # Class of committed instruction
system.switch_cpus_1.commit.op_class_0::SimdCmp            0      0.00%     69.90% # Class of committed instruction
system.switch_cpus_1.commit.op_class_0::SimdCvt        17618      0.00%     69.90% # Class of committed instruction
system.switch_cpus_1.commit.op_class_0::SimdMisc      8796890      0.93%     70.83% # Class of committed instruction
system.switch_cpus_1.commit.op_class_0::SimdMult            0      0.00%     70.83% # Class of committed instruction
system.switch_cpus_1.commit.op_class_0::SimdMultAcc            0      0.00%     70.83% # Class of committed instruction
system.switch_cpus_1.commit.op_class_0::SimdShift          265      0.00%     70.83% # Class of committed instruction
system.switch_cpus_1.commit.op_class_0::SimdShiftAcc            0      0.00%     70.83% # Class of committed instruction
system.switch_cpus_1.commit.op_class_0::SimdDiv            0      0.00%     70.83% # Class of committed instruction
system.switch_cpus_1.commit.op_class_0::SimdSqrt            0      0.00%     70.83% # Class of committed instruction
system.switch_cpus_1.commit.op_class_0::SimdFloatAdd     31332428      3.32%     74.15% # Class of committed instruction
system.switch_cpus_1.commit.op_class_0::SimdFloatAlu            0      0.00%     74.15% # Class of committed instruction
system.switch_cpus_1.commit.op_class_0::SimdFloatCmp            2      0.00%     74.15% # Class of committed instruction
system.switch_cpus_1.commit.op_class_0::SimdFloatCvt      5366760      0.57%     74.72% # Class of committed instruction
system.switch_cpus_1.commit.op_class_0::SimdFloatDiv      1728000      0.18%     74.90% # Class of committed instruction
system.switch_cpus_1.commit.op_class_0::SimdFloatMisc            0      0.00%     74.90% # Class of committed instruction
system.switch_cpus_1.commit.op_class_0::SimdFloatMult     27922114      2.96%     77.86% # Class of committed instruction
system.switch_cpus_1.commit.op_class_0::SimdFloatMultAcc            0      0.00%     77.86% # Class of committed instruction
system.switch_cpus_1.commit.op_class_0::SimdFloatSqrt        45685      0.00%     77.87% # Class of committed instruction
system.switch_cpus_1.commit.op_class_0::SimdReduceAdd            0      0.00%     77.87% # Class of committed instruction
system.switch_cpus_1.commit.op_class_0::SimdReduceAlu            0      0.00%     77.87% # Class of committed instruction
system.switch_cpus_1.commit.op_class_0::SimdReduceCmp            0      0.00%     77.87% # Class of committed instruction
system.switch_cpus_1.commit.op_class_0::SimdFloatReduceAdd            0      0.00%     77.87% # Class of committed instruction
system.switch_cpus_1.commit.op_class_0::SimdFloatReduceCmp            0      0.00%     77.87% # Class of committed instruction
system.switch_cpus_1.commit.op_class_0::SimdAes            0      0.00%     77.87% # Class of committed instruction
system.switch_cpus_1.commit.op_class_0::SimdAesMix            0      0.00%     77.87% # Class of committed instruction
system.switch_cpus_1.commit.op_class_0::SimdSha1Hash            0      0.00%     77.87% # Class of committed instruction
system.switch_cpus_1.commit.op_class_0::SimdSha1Hash2            0      0.00%     77.87% # Class of committed instruction
system.switch_cpus_1.commit.op_class_0::SimdSha256Hash            0      0.00%     77.87% # Class of committed instruction
system.switch_cpus_1.commit.op_class_0::SimdSha256Hash2            0      0.00%     77.87% # Class of committed instruction
system.switch_cpus_1.commit.op_class_0::SimdShaSigma2            0      0.00%     77.87% # Class of committed instruction
system.switch_cpus_1.commit.op_class_0::SimdShaSigma3            0      0.00%     77.87% # Class of committed instruction
system.switch_cpus_1.commit.op_class_0::SimdPredAlu            0      0.00%     77.87% # Class of committed instruction
system.switch_cpus_1.commit.op_class_0::MemRead    110075833     11.67%     89.53% # Class of committed instruction
system.switch_cpus_1.commit.op_class_0::MemWrite     41603997      4.41%     93.94% # Class of committed instruction
system.switch_cpus_1.commit.op_class_0::FloatMemRead     44973145      4.77%     98.71% # Class of committed instruction
system.switch_cpus_1.commit.op_class_0::FloatMemWrite     12170276      1.29%    100.00% # Class of committed instruction
system.switch_cpus_1.commit.op_class_0::IprAccess            0      0.00%    100.00% # Class of committed instruction
system.switch_cpus_1.commit.op_class_0::InstPrefetch            0      0.00%    100.00% # Class of committed instruction
system.switch_cpus_1.commit.op_class_0::total    943521549                       # Class of committed instruction
system.switch_cpus_1.commit.refs            208823251                       # Number of memory references committed
system.switch_cpus_1.commit.swp_count               0                       # Number of s/w prefetches committed
system.switch_cpus_1.commit.vec_insts               0                       # Number of committed Vector instructions.
system.switch_cpus_1.committedInsts         500000001                       # Number of Instructions Simulated
system.switch_cpus_1.committedOps           943521549                       # Number of Ops (including micro ops) Simulated
system.switch_cpus_1.cpi                     1.630828                       # CPI: Cycles Per Instruction
system.switch_cpus_1.cpi_total               1.630828                       # CPI: Total CPI of All Threads
system.switch_cpus_1.decode.BlockedCycles    670650509                       # Number of cycles decode is blocked
system.switch_cpus_1.decode.DecodedInsts    957447630                       # Number of instructions handled by decode
system.switch_cpus_1.decode.IdleCycles        9493909                       # Number of cycles decode is idle
system.switch_cpus_1.decode.RunCycles       118504318                       # Number of cycles decode is running
system.switch_cpus_1.decode.SquashCycles       129752                       # Number of cycles decode is squashing
system.switch_cpus_1.decode.UnblockCycles     16562158                       # Number of cycles decode is unblocking
system.switch_cpus_1.dtb.rdAccesses         156949963                       # TLB accesses on read requests
system.switch_cpus_1.dtb.rdMisses               10352                       # TLB misses on read requests
system.switch_cpus_1.dtb.wrAccesses          54450098                       # TLB accesses on write requests
system.switch_cpus_1.dtb.wrMisses              418414                       # TLB misses on write requests
system.switch_cpus_1.fetch.Branches          79940815                       # Number of branches that fetch encountered
system.switch_cpus_1.fetch.CacheLines        58437524                       # Number of cache lines fetched
system.switch_cpus_1.fetch.Cycles           815083551                       # Number of cycles fetch has run and was not squashing or blocked
system.switch_cpus_1.fetch.IcacheSquashes         1172                       # Number of outstanding Icache misses that were squashed
system.switch_cpus_1.fetch.IcacheWaitRetryStallCycles          238                       # Number of stall cycles due to full MSHR
system.switch_cpus_1.fetch.Insts            508970023                       # Number of instructions fetch has processed
system.switch_cpus_1.fetch.MiscStallCycles          301                       # Number of cycles fetch has spent waiting on interrupts, or bad addresses, or out of MSHRs
system.switch_cpus_1.fetch.PendingTrapStallCycles         1687                       # Number of stall cycles due to pending traps
system.switch_cpus_1.fetch.SquashCycles        259504                       # Number of cycles fetch has spent squashing
system.switch_cpus_1.fetch.branchRate        0.098037                       # Number of branch fetches per cycle
system.switch_cpus_1.fetch.icacheStallCycles       125132                       # Number of cycles fetch is stalled on an Icache miss
system.switch_cpus_1.fetch.predictedBranches     44498190                       # Number of branches that fetch has predicted taken
system.switch_cpus_1.fetch.rate              0.624186                       # Number of inst fetches per cycle
system.switch_cpus_1.fetch.rateDist::samples    815340661                       # Number of instructions fetched each cycle (Total)
system.switch_cpus_1.fetch.rateDist::mean     1.178570                       # Number of instructions fetched each cycle (Total)
system.switch_cpus_1.fetch.rateDist::stdev     2.643676                       # Number of instructions fetched each cycle (Total)
system.switch_cpus_1.fetch.rateDist::underflows            0      0.00%      0.00% # Number of instructions fetched each cycle (Total)
system.switch_cpus_1.fetch.rateDist::0      660968114     81.07%     81.07% # Number of instructions fetched each cycle (Total)
system.switch_cpus_1.fetch.rateDist::1        6565622      0.81%     81.87% # Number of instructions fetched each cycle (Total)
system.switch_cpus_1.fetch.rateDist::2       12009129      1.47%     83.34% # Number of instructions fetched each cycle (Total)
system.switch_cpus_1.fetch.rateDist::3       11681444      1.43%     84.78% # Number of instructions fetched each cycle (Total)
system.switch_cpus_1.fetch.rateDist::4        9225524      1.13%     85.91% # Number of instructions fetched each cycle (Total)
system.switch_cpus_1.fetch.rateDist::5       10554366      1.29%     87.20% # Number of instructions fetched each cycle (Total)
system.switch_cpus_1.fetch.rateDist::6        9045332      1.11%     88.31% # Number of instructions fetched each cycle (Total)
system.switch_cpus_1.fetch.rateDist::7       10966892      1.35%     89.66% # Number of instructions fetched each cycle (Total)
system.switch_cpus_1.fetch.rateDist::8       84324238     10.34%    100.00% # Number of instructions fetched each cycle (Total)
system.switch_cpus_1.fetch.rateDist::overflows            0      0.00%    100.00% # Number of instructions fetched each cycle (Total)
system.switch_cpus_1.fetch.rateDist::min_value            0                       # Number of instructions fetched each cycle (Total)
system.switch_cpus_1.fetch.rateDist::max_value            8                       # Number of instructions fetched each cycle (Total)
system.switch_cpus_1.fetch.rateDist::total    815340661                       # Number of instructions fetched each cycle (Total)
system.switch_cpus_1.fp_regfile_reads       312114166                       # number of floating regfile reads
system.switch_cpus_1.fp_regfile_writes      181283275                       # number of floating regfile writes
system.switch_cpus_1.idleCycles                 73434                       # Total number of cycles that the CPU has spent unscheduled due to idling
system.switch_cpus_1.iew.branchMispredicts       107505                       # Number of branch mispredicts detected at execute
system.switch_cpus_1.iew.exec_branches       79271970                       # Number of branches executed
system.switch_cpus_1.iew.exec_nop                   0                       # number of nop insts executed
system.switch_cpus_1.iew.exec_rate           1.170613                       # Inst execution rate
system.switch_cpus_1.iew.exec_refs          211402330                       # number of memory reference insts executed
system.switch_cpus_1.iew.exec_stores         54450072                       # Number of stores executed
system.switch_cpus_1.iew.exec_swp                   0                       # number of swp insts executed
system.switch_cpus_1.iew.iewBlockCycles      38401964                       # Number of cycles IEW is blocking
system.switch_cpus_1.iew.iewDispLoadInsts    157083509                       # Number of dispatched load instructions
system.switch_cpus_1.iew.iewDispNonSpecInsts           95                       # Number of dispatched non-speculative instructions
system.switch_cpus_1.iew.iewDispSquashedInsts         1392                       # Number of squashed instructions skipped by dispatch
system.switch_cpus_1.iew.iewDispStoreInsts     54748502                       # Number of dispatched store instructions
system.switch_cpus_1.iew.iewDispatchedInsts    955911582                       # Number of instructions dispatched to IQ
system.switch_cpus_1.iew.iewExecLoadInsts    156952258                       # Number of load instructions executed
system.switch_cpus_1.iew.iewExecSquashedInsts       180951                       # Number of squashed instructions skipped in execute
system.switch_cpus_1.iew.iewExecutedInsts    954534376                       # Number of executed instructions
system.switch_cpus_1.iew.iewIQFullEvents        25327                       # Number of times the IQ has become full, causing a stall
system.switch_cpus_1.iew.iewIdleCycles              0                       # Number of cycles IEW is idle
system.switch_cpus_1.iew.iewLSQFullEvents    198792350                       # Number of times the LSQ has become full, causing a stall
system.switch_cpus_1.iew.iewSquashCycles       129752                       # Number of cycles IEW is squashing
system.switch_cpus_1.iew.iewUnblockCycles    199251902                       # Number of cycles IEW is unblocking
system.switch_cpus_1.iew.lsq.thread0.blockedLoads            0                       # Number of blocked loads due to partial load-store forwarding
system.switch_cpus_1.iew.lsq.thread0.cacheBlocked         3751                       # Number of times an access to memory failed due to the cache being blocked
system.switch_cpus_1.iew.lsq.thread0.forwLoads     17559473                       # Number of loads that had data forwarded from stores
system.switch_cpus_1.iew.lsq.thread0.ignoredResponses           30                       # Number of memory responses ignored because the instruction is squashed
system.switch_cpus_1.iew.lsq.thread0.invAddrLoads            0                       # Number of loads ignored due to an invalid address
system.switch_cpus_1.iew.lsq.thread0.invAddrSwpfs            0                       # Number of software prefetches ignored due to an invalid address
system.switch_cpus_1.iew.lsq.thread0.memOrderViolation          414                       # Number of memory ordering violations
system.switch_cpus_1.iew.lsq.thread0.rescheduledLoads            8                       # Number of loads that were rescheduled
system.switch_cpus_1.iew.lsq.thread0.squashedLoads      2034526                       # Number of loads squashed
system.switch_cpus_1.iew.lsq.thread0.squashedStores       974225                       # Number of stores squashed
system.switch_cpus_1.iew.memOrderViolationEvents          414                       # Number of memory order violations
system.switch_cpus_1.iew.predictedNotTakenIncorrect        25660                       # Number of branches that were predicted not taken incorrectly
system.switch_cpus_1.iew.predictedTakenIncorrect        81845                       # Number of branches that were predicted taken incorrectly
system.switch_cpus_1.iew.wb_consumers      1267784133                       # num instructions consuming a value
system.switch_cpus_1.iew.wb_count           954204740                       # cumulative count of insts written-back
system.switch_cpus_1.iew.wb_fanout           0.593804                       # average fanout of values written-back
system.switch_cpus_1.iew.wb_producers       752815478                       # num instructions producing a value
system.switch_cpus_1.iew.wb_rate             1.170209                       # insts written-back per cycle
system.switch_cpus_1.iew.wb_sent            954451615                       # cumulative count of insts sent to commit
system.switch_cpus_1.int_regfile_reads     1170948792                       # number of integer regfile reads
system.switch_cpus_1.int_regfile_writes     641474838                       # number of integer regfile writes
system.switch_cpus_1.ipc                     0.613185                       # IPC: Instructions Per Cycle
system.switch_cpus_1.ipc_total               0.613185                       # IPC: Total IPC of All Threads
system.switch_cpus_1.iq.FU_type_0::No_OpClass        60013      0.01%      0.01% # Type of FU issued
system.switch_cpus_1.iq.FU_type_0::IntAlu    627445446     65.72%     65.73% # Type of FU issued
system.switch_cpus_1.iq.FU_type_0::IntMult      7313658      0.77%     66.49% # Type of FU issued
system.switch_cpus_1.iq.FU_type_0::IntDiv           16      0.00%     66.49% # Type of FU issued
system.switch_cpus_1.iq.FU_type_0::FloatAdd     26202338      2.74%     69.24% # Type of FU issued
system.switch_cpus_1.iq.FU_type_0::FloatCmp            0      0.00%     69.24% # Type of FU issued
system.switch_cpus_1.iq.FU_type_0::FloatCvt          156      0.00%     69.24% # Type of FU issued
system.switch_cpus_1.iq.FU_type_0::FloatMult            0      0.00%     69.24% # Type of FU issued
system.switch_cpus_1.iq.FU_type_0::FloatMultAcc            0      0.00%     69.24% # Type of FU issued
system.switch_cpus_1.iq.FU_type_0::FloatDiv            0      0.00%     69.24% # Type of FU issued
system.switch_cpus_1.iq.FU_type_0::FloatMisc            0      0.00%     69.24% # Type of FU issued
system.switch_cpus_1.iq.FU_type_0::FloatSqrt            0      0.00%     69.24% # Type of FU issued
system.switch_cpus_1.iq.FU_type_0::SimdAdd          780      0.00%     69.24% # Type of FU issued
system.switch_cpus_1.iq.FU_type_0::SimdAddAcc            0      0.00%     69.24% # Type of FU issued
system.switch_cpus_1.iq.FU_type_0::SimdAlu      6966207      0.73%     69.97% # Type of FU issued
system.switch_cpus_1.iq.FU_type_0::SimdCmp            0      0.00%     69.97% # Type of FU issued
system.switch_cpus_1.iq.FU_type_0::SimdCvt        18566      0.00%     69.97% # Type of FU issued
system.switch_cpus_1.iq.FU_type_0::SimdMisc      8814256      0.92%     70.89% # Type of FU issued
system.switch_cpus_1.iq.FU_type_0::SimdMult            0      0.00%     70.89% # Type of FU issued
system.switch_cpus_1.iq.FU_type_0::SimdMultAcc            0      0.00%     70.89% # Type of FU issued
system.switch_cpus_1.iq.FU_type_0::SimdShift          458      0.00%     70.89% # Type of FU issued
system.switch_cpus_1.iq.FU_type_0::SimdShiftAcc            0      0.00%     70.89% # Type of FU issued
system.switch_cpus_1.iq.FU_type_0::SimdDiv            0      0.00%     70.89% # Type of FU issued
system.switch_cpus_1.iq.FU_type_0::SimdSqrt            0      0.00%     70.89% # Type of FU issued
system.switch_cpus_1.iq.FU_type_0::SimdFloatAdd     31356383      3.28%     74.18% # Type of FU issued
system.switch_cpus_1.iq.FU_type_0::SimdFloatAlu            0      0.00%     74.18% # Type of FU issued
system.switch_cpus_1.iq.FU_type_0::SimdFloatCmp            2      0.00%     74.18% # Type of FU issued
system.switch_cpus_1.iq.FU_type_0::SimdFloatCvt      5366760      0.56%     74.74% # Type of FU issued
system.switch_cpus_1.iq.FU_type_0::SimdFloatDiv      1731376      0.18%     74.92% # Type of FU issued
system.switch_cpus_1.iq.FU_type_0::SimdFloatMisc            0      0.00%     74.92% # Type of FU issued
system.switch_cpus_1.iq.FU_type_0::SimdFloatMult     27936239      2.93%     77.85% # Type of FU issued
system.switch_cpus_1.iq.FU_type_0::SimdFloatMultAcc            0      0.00%     77.85% # Type of FU issued
system.switch_cpus_1.iq.FU_type_0::SimdFloatSqrt        45685      0.00%     77.85% # Type of FU issued
system.switch_cpus_1.iq.FU_type_0::SimdReduceAdd            0      0.00%     77.85% # Type of FU issued
system.switch_cpus_1.iq.FU_type_0::SimdReduceAlu            0      0.00%     77.85% # Type of FU issued
system.switch_cpus_1.iq.FU_type_0::SimdReduceCmp            0      0.00%     77.85% # Type of FU issued
system.switch_cpus_1.iq.FU_type_0::SimdFloatReduceAdd            0      0.00%     77.85% # Type of FU issued
system.switch_cpus_1.iq.FU_type_0::SimdFloatReduceCmp            0      0.00%     77.85% # Type of FU issued
system.switch_cpus_1.iq.FU_type_0::SimdAes            0      0.00%     77.85% # Type of FU issued
system.switch_cpus_1.iq.FU_type_0::SimdAesMix            0      0.00%     77.85% # Type of FU issued
system.switch_cpus_1.iq.FU_type_0::SimdSha1Hash            0      0.00%     77.85% # Type of FU issued
system.switch_cpus_1.iq.FU_type_0::SimdSha1Hash2            0      0.00%     77.85% # Type of FU issued
system.switch_cpus_1.iq.FU_type_0::SimdSha256Hash            0      0.00%     77.85% # Type of FU issued
system.switch_cpus_1.iq.FU_type_0::SimdSha256Hash2            0      0.00%     77.85% # Type of FU issued
system.switch_cpus_1.iq.FU_type_0::SimdShaSigma2            0      0.00%     77.85% # Type of FU issued
system.switch_cpus_1.iq.FU_type_0::SimdShaSigma3            0      0.00%     77.85% # Type of FU issued
system.switch_cpus_1.iq.FU_type_0::SimdPredAlu            0      0.00%     77.85% # Type of FU issued
system.switch_cpus_1.iq.FU_type_0::MemRead    111725507     11.70%     89.55% # Type of FU issued
system.switch_cpus_1.iq.FU_type_0::MemWrite     42115646      4.41%     93.97% # Type of FU issued
system.switch_cpus_1.iq.FU_type_0::FloatMemRead     45274738      4.74%     98.71% # Type of FU issued
system.switch_cpus_1.iq.FU_type_0::FloatMemWrite     12341097      1.29%    100.00% # Type of FU issued
system.switch_cpus_1.iq.FU_type_0::IprAccess            0      0.00%    100.00% # Type of FU issued
system.switch_cpus_1.iq.FU_type_0::InstPrefetch            0      0.00%    100.00% # Type of FU issued
system.switch_cpus_1.iq.FU_type_0::total    954715327                       # Type of FU issued
system.switch_cpus_1.iq.fp_alu_accesses     208500498                       # Number of floating point alu accesses
system.switch_cpus_1.iq.fp_inst_queue_reads    416095723                       # Number of floating instruction queue reads
system.switch_cpus_1.iq.fp_inst_queue_wakeup_accesses    207368896                       # Number of floating instruction queue wakeup accesses
system.switch_cpus_1.iq.fp_inst_queue_writes    209001066                       # Number of floating instruction queue writes
system.switch_cpus_1.iq.fu_busy_cnt          25718659                       # FU busy when requested
system.switch_cpus_1.iq.fu_busy_rate         0.026939                       # FU busy rate (busy events/executed inst)
system.switch_cpus_1.iq.fu_full::No_OpClass            0      0.00%      0.00% # attempts to use FU when none available
system.switch_cpus_1.iq.fu_full::IntAlu      14660416     57.00%     57.00% # attempts to use FU when none available
system.switch_cpus_1.iq.fu_full::IntMult            0      0.00%     57.00% # attempts to use FU when none available
system.switch_cpus_1.iq.fu_full::IntDiv             0      0.00%     57.00% # attempts to use FU when none available
system.switch_cpus_1.iq.fu_full::FloatAdd            0      0.00%     57.00% # attempts to use FU when none available
system.switch_cpus_1.iq.fu_full::FloatCmp            0      0.00%     57.00% # attempts to use FU when none available
system.switch_cpus_1.iq.fu_full::FloatCvt            0      0.00%     57.00% # attempts to use FU when none available
system.switch_cpus_1.iq.fu_full::FloatMult            0      0.00%     57.00% # attempts to use FU when none available
system.switch_cpus_1.iq.fu_full::FloatMultAcc            0      0.00%     57.00% # attempts to use FU when none available
system.switch_cpus_1.iq.fu_full::FloatDiv            0      0.00%     57.00% # attempts to use FU when none available
system.switch_cpus_1.iq.fu_full::FloatMisc            0      0.00%     57.00% # attempts to use FU when none available
system.switch_cpus_1.iq.fu_full::FloatSqrt            0      0.00%     57.00% # attempts to use FU when none available
system.switch_cpus_1.iq.fu_full::SimdAdd            1      0.00%     57.00% # attempts to use FU when none available
system.switch_cpus_1.iq.fu_full::SimdAddAcc            0      0.00%     57.00% # attempts to use FU when none available
system.switch_cpus_1.iq.fu_full::SimdAlu         2890      0.01%     57.01% # attempts to use FU when none available
system.switch_cpus_1.iq.fu_full::SimdCmp            0      0.00%     57.01% # attempts to use FU when none available
system.switch_cpus_1.iq.fu_full::SimdCvt           12      0.00%     57.01% # attempts to use FU when none available
system.switch_cpus_1.iq.fu_full::SimdMisc         2051      0.01%     57.02% # attempts to use FU when none available
system.switch_cpus_1.iq.fu_full::SimdMult            0      0.00%     57.02% # attempts to use FU when none available
system.switch_cpus_1.iq.fu_full::SimdMultAcc            0      0.00%     57.02% # attempts to use FU when none available
system.switch_cpus_1.iq.fu_full::SimdShift            1      0.00%     57.02% # attempts to use FU when none available
system.switch_cpus_1.iq.fu_full::SimdShiftAcc            0      0.00%     57.02% # attempts to use FU when none available
system.switch_cpus_1.iq.fu_full::SimdDiv            0      0.00%     57.02% # attempts to use FU when none available
system.switch_cpus_1.iq.fu_full::SimdSqrt            0      0.00%     57.02% # attempts to use FU when none available
system.switch_cpus_1.iq.fu_full::SimdFloatAdd            0      0.00%     57.02% # attempts to use FU when none available
system.switch_cpus_1.iq.fu_full::SimdFloatAlu            0      0.00%     57.02% # attempts to use FU when none available
system.switch_cpus_1.iq.fu_full::SimdFloatCmp            0      0.00%     57.02% # attempts to use FU when none available
system.switch_cpus_1.iq.fu_full::SimdFloatCvt            0      0.00%     57.02% # attempts to use FU when none available
system.switch_cpus_1.iq.fu_full::SimdFloatDiv            0      0.00%     57.02% # attempts to use FU when none available
system.switch_cpus_1.iq.fu_full::SimdFloatMisc            0      0.00%     57.02% # attempts to use FU when none available
system.switch_cpus_1.iq.fu_full::SimdFloatMult            0      0.00%     57.02% # attempts to use FU when none available
system.switch_cpus_1.iq.fu_full::SimdFloatMultAcc            0      0.00%     57.02% # attempts to use FU when none available
system.switch_cpus_1.iq.fu_full::SimdFloatSqrt            0      0.00%     57.02% # attempts to use FU when none available
system.switch_cpus_1.iq.fu_full::SimdReduceAdd            0      0.00%     57.02% # attempts to use FU when none available
system.switch_cpus_1.iq.fu_full::SimdReduceAlu            0      0.00%     57.02% # attempts to use FU when none available
system.switch_cpus_1.iq.fu_full::SimdReduceCmp            0      0.00%     57.02% # attempts to use FU when none available
system.switch_cpus_1.iq.fu_full::SimdFloatReduceAdd            0      0.00%     57.02% # attempts to use FU when none available
system.switch_cpus_1.iq.fu_full::SimdFloatReduceCmp            0      0.00%     57.02% # attempts to use FU when none available
system.switch_cpus_1.iq.fu_full::SimdAes            0      0.00%     57.02% # attempts to use FU when none available
system.switch_cpus_1.iq.fu_full::SimdAesMix            0      0.00%     57.02% # attempts to use FU when none available
system.switch_cpus_1.iq.fu_full::SimdSha1Hash            0      0.00%     57.02% # attempts to use FU when none available
system.switch_cpus_1.iq.fu_full::SimdSha1Hash2            0      0.00%     57.02% # attempts to use FU when none available
system.switch_cpus_1.iq.fu_full::SimdSha256Hash            0      0.00%     57.02% # attempts to use FU when none available
system.switch_cpus_1.iq.fu_full::SimdSha256Hash2            0      0.00%     57.02% # attempts to use FU when none available
system.switch_cpus_1.iq.fu_full::SimdShaSigma2            0      0.00%     57.02% # attempts to use FU when none available
system.switch_cpus_1.iq.fu_full::SimdShaSigma3            0      0.00%     57.02% # attempts to use FU when none available
system.switch_cpus_1.iq.fu_full::SimdPredAlu            0      0.00%     57.02% # attempts to use FU when none available
system.switch_cpus_1.iq.fu_full::MemRead      7136300     27.75%     84.77% # attempts to use FU when none available
system.switch_cpus_1.iq.fu_full::MemWrite      3031299     11.79%     96.56% # attempts to use FU when none available
system.switch_cpus_1.iq.fu_full::FloatMemRead       644878      2.51%     99.06% # attempts to use FU when none available
system.switch_cpus_1.iq.fu_full::FloatMemWrite       240811      0.94%    100.00% # attempts to use FU when none available
system.switch_cpus_1.iq.fu_full::IprAccess            0      0.00%    100.00% # attempts to use FU when none available
system.switch_cpus_1.iq.fu_full::InstPrefetch            0      0.00%    100.00% # attempts to use FU when none available
system.switch_cpus_1.iq.int_alu_accesses    771873475                       # Number of integer alu accesses
system.switch_cpus_1.iq.int_inst_queue_reads   2334458042                       # Number of integer instruction queue reads
system.switch_cpus_1.iq.int_inst_queue_wakeup_accesses    746835844                       # Number of integer instruction queue wakeup accesses
system.switch_cpus_1.iq.int_inst_queue_writes    759300891                       # Number of integer instruction queue writes
system.switch_cpus_1.iq.iqInstsAdded        955911350                       # Number of instructions added to the IQ (excludes non-spec)
system.switch_cpus_1.iq.iqInstsIssued       954715327                       # Number of instructions issued
system.switch_cpus_1.iq.iqNonSpecInstsAdded          232                       # Number of non-speculative instructions added to the IQ
system.switch_cpus_1.iq.iqSquashedInstsExamined     12389993                       # Number of squashed instructions iterated over during squash; mainly for profiling
system.switch_cpus_1.iq.iqSquashedInstsIssued        63791                       # Number of squashed instructions issued
system.switch_cpus_1.iq.iqSquashedNonSpecRemoved          213                       # Number of squashed non-spec instructions that were removed
system.switch_cpus_1.iq.iqSquashedOperandsExamined      4816539                       # Number of squashed operands that are examined and possibly removed from graph
system.switch_cpus_1.iq.issued_per_cycle::samples    815340661                       # Number of insts issued each cycle
system.switch_cpus_1.iq.issued_per_cycle::mean     1.170940                       # Number of insts issued each cycle
system.switch_cpus_1.iq.issued_per_cycle::stdev     2.449394                       # Number of insts issued each cycle
system.switch_cpus_1.iq.issued_per_cycle::underflows            0      0.00%      0.00% # Number of insts issued each cycle
system.switch_cpus_1.iq.issued_per_cycle::0    642386211     78.79%     78.79% # Number of insts issued each cycle
system.switch_cpus_1.iq.issued_per_cycle::1      9906192      1.21%     80.00% # Number of insts issued each cycle
system.switch_cpus_1.iq.issued_per_cycle::2      8494326      1.04%     81.04% # Number of insts issued each cycle
system.switch_cpus_1.iq.issued_per_cycle::3     13614209      1.67%     82.71% # Number of insts issued each cycle
system.switch_cpus_1.iq.issued_per_cycle::4     20042047      2.46%     85.17% # Number of insts issued each cycle
system.switch_cpus_1.iq.issued_per_cycle::5     21258559      2.61%     87.78% # Number of insts issued each cycle
system.switch_cpus_1.iq.issued_per_cycle::6     31532083      3.87%     91.65% # Number of insts issued each cycle
system.switch_cpus_1.iq.issued_per_cycle::7     33531897      4.11%     95.76% # Number of insts issued each cycle
system.switch_cpus_1.iq.issued_per_cycle::8     34575137      4.24%    100.00% # Number of insts issued each cycle
system.switch_cpus_1.iq.issued_per_cycle::overflows            0      0.00%    100.00% # Number of insts issued each cycle
system.switch_cpus_1.iq.issued_per_cycle::min_value            0                       # Number of insts issued each cycle
system.switch_cpus_1.iq.issued_per_cycle::max_value            8                       # Number of insts issued each cycle
system.switch_cpus_1.iq.issued_per_cycle::total    815340661                       # Number of insts issued each cycle
system.switch_cpus_1.iq.rate                 1.170835                       # Inst issue rate
system.switch_cpus_1.iq.vec_alu_accesses            0                       # Number of vector alu accesses
system.switch_cpus_1.iq.vec_inst_queue_reads            0                       # Number of vector instruction queue reads
system.switch_cpus_1.iq.vec_inst_queue_wakeup_accesses            0                       # Number of vector instruction queue wakeup accesses
system.switch_cpus_1.iq.vec_inst_queue_writes            0                       # Number of vector instruction queue writes
system.switch_cpus_1.itb.rdAccesses                 0                       # TLB accesses on read requests
system.switch_cpus_1.itb.rdMisses                   0                       # TLB misses on read requests
system.switch_cpus_1.itb.wrAccesses          58437820                       # TLB accesses on write requests
system.switch_cpus_1.itb.wrMisses                 396                       # TLB misses on write requests
system.switch_cpus_1.memDep0.conflictingLoads      1753637                       # Number of conflicting loads.
system.switch_cpus_1.memDep0.conflictingStores      1103074                       # Number of conflicting stores.
system.switch_cpus_1.memDep0.insertedLoads    157083509                       # Number of loads inserted to the mem dependence unit.
system.switch_cpus_1.memDep0.insertedStores     54748502                       # Number of stores inserted to the mem dependence unit.
system.switch_cpus_1.misc_regfile_reads     392558563                       # number of misc regfile reads
system.switch_cpus_1.misc_regfile_writes            9                       # number of misc regfile writes
system.switch_cpus_1.numCycles              815414095                       # number of cpu cycles simulated
system.switch_cpus_1.numWorkItemsCompleted            0                       # number of work items this cpu completed
system.switch_cpus_1.numWorkItemsStarted            0                       # number of work items this cpu started
system.switch_cpus_1.rename.BlockCycles     283203683                       # Number of cycles rename is blocking
system.switch_cpus_1.rename.CommittedMaps   1071869321                       # Number of HB maps that are committed
system.switch_cpus_1.rename.IQFullEvents      8937517                       # Number of times rename has blocked due to IQ full
system.switch_cpus_1.rename.IdleCycles       15999893                       # Number of cycles rename is idle
system.switch_cpus_1.rename.LQFullEvents        34224                       # Number of times rename has blocked due to LQ full
system.switch_cpus_1.rename.ROBFullEvents       217506                       # Number of times rename has blocked due to ROB full
system.switch_cpus_1.rename.RenameLookups   2267205336                       # Number of register rename lookups that rename has made
system.switch_cpus_1.rename.RenamedInsts    956472796                       # Number of instructions processed by rename
system.switch_cpus_1.rename.RenamedOperands   1086566279                       # Number of destination operands rename has renamed
system.switch_cpus_1.rename.RunCycles       128094639                       # Number of cycles rename is running
system.switch_cpus_1.rename.SQFullEvents    372328859                       # Number of times rename has blocked due to SQ full
system.switch_cpus_1.rename.SquashCycles       129752                       # Number of cycles rename is squashing
system.switch_cpus_1.rename.UnblockCycles    387912339                       # Number of cycles rename is unblocking
system.switch_cpus_1.rename.UndoneMaps       14696901                       # Number of HB maps that are undone due to squashing
system.switch_cpus_1.rename.fp_rename_lookups    312639673                       # Number of floating rename lookups
system.switch_cpus_1.rename.int_rename_lookups   1174066395                       # Number of integer rename lookups
system.switch_cpus_1.rename.serializeStallCycles          340                       # count of cycles rename stalled for serializing inst
system.switch_cpus_1.rename.serializingInsts           56                       # count of serializing insts renamed
system.switch_cpus_1.rename.skidInsts        79512807                       # count of insts added to the skid buffer
system.switch_cpus_1.rename.tempSerializingInsts           57                       # count of temporary serializing insts renamed
system.switch_cpus_1.rob.rob_reads         1676325000                       # The number of ROB reads
system.switch_cpus_1.rob.rob_writes        1912495354                       # The number of ROB writes
system.switch_cpus_1.timesIdled                   494                       # Number of times that the entire CPU went into an idle state and unscheduled itself
system.tol2bus.snoop_filter.hit_multi_requests            3                       # Number of requests hitting in the snoop filter with multiple (>1) holders of the requested data.
system.tol2bus.snoop_filter.hit_multi_snoops            0                       # Number of snoops hitting in the snoop filter with multiple (>1) holders of the requested data.
system.tol2bus.snoop_filter.hit_single_requests      4079983                       # Number of requests hitting in the snoop filter with a single holder of the requested data.
system.tol2bus.snoop_filter.hit_single_snoops       860396                       # Number of snoops hitting in the snoop filter with a single holder of the requested data.
system.tol2bus.snoop_filter.tot_requests      8159968                       # Total number of requests made to the snoop filter.
system.tol2bus.snoop_filter.tot_snoops         860396                       # Total number of snoops made to the snoop filter.
system.tol3bus.snoop_filter.hit_multi_requests            0                       # Number of requests hitting in the snoop filter with multiple (>1) holders of the requested data.
system.tol3bus.snoop_filter.hit_multi_snoops            0                       # Number of snoops hitting in the snoop filter with multiple (>1) holders of the requested data.
system.tol3bus.snoop_filter.hit_single_requests      4050589                       # Number of requests hitting in the snoop filter with a single holder of the requested data.
system.tol3bus.snoop_filter.hit_single_snoops      1701972                       # Number of snoops hitting in the snoop filter with a single holder of the requested data.
system.tol3bus.snoop_filter.tot_requests      8101178                       # Total number of requests made to the snoop filter.
system.tol3bus.snoop_filter.tot_snoops        1701972                       # Total number of snoops made to the snoop filter.
system.membus.trans_dist::ReadResp             635899                       # Transaction distribution
system.membus.trans_dist::WritebackDirty      3405787                       # Transaction distribution
system.membus.trans_dist::CleanEvict           630240                       # Transaction distribution
system.membus.trans_dist::ReadExReq           3400112                       # Transaction distribution
system.membus.trans_dist::ReadExResp          3400111                       # Transaction distribution
system.membus.trans_dist::ReadSharedReq        635900                       # Transaction distribution
system.membus.pkt_count_system.l3.mem_side::system.mem_ctrls.port     12108049                       # Packet count per connected master and slave (bytes)
system.membus.pkt_count_system.l3.mem_side::total     12108049                       # Packet count per connected master and slave (bytes)
system.membus.pkt_count::total               12108049                       # Packet count per connected master and slave (bytes)
system.membus.pkt_size_system.l3.mem_side::system.mem_ctrls.port    476275008                       # Cumulative packet size per connected master and slave (bytes)
system.membus.pkt_size_system.l3.mem_side::total    476275008                       # Cumulative packet size per connected master and slave (bytes)
system.membus.pkt_size::total               476275008                       # Cumulative packet size per connected master and slave (bytes)
system.membus.snoops                                0                       # Total snoops (count)
system.membus.snoopTraffic                          0                       # Total snoop traffic (bytes)
system.membus.snoop_fanout::samples           4036012                       # Request fanout histogram
system.membus.snoop_fanout::mean                    0                       # Request fanout histogram
system.membus.snoop_fanout::stdev                   0                       # Request fanout histogram
system.membus.snoop_fanout::underflows              0      0.00%      0.00% # Request fanout histogram
system.membus.snoop_fanout::0                 4036012    100.00%    100.00% # Request fanout histogram
system.membus.snoop_fanout::1                       0      0.00%    100.00% # Request fanout histogram
system.membus.snoop_fanout::overflows               0      0.00%    100.00% # Request fanout histogram
system.membus.snoop_fanout::min_value               0                       # Request fanout histogram
system.membus.snoop_fanout::max_value               0                       # Request fanout histogram
system.membus.snoop_fanout::total             4036012                       # Request fanout histogram
system.membus.reqLayer2.occupancy         22280537000                       # Layer occupancy (ticks)
system.membus.reqLayer2.utilization               5.5                       # Layer utilization (%)
system.membus.respLayer1.occupancy        21541172750                       # Layer occupancy (ticks)
system.membus.respLayer1.utilization              5.3                       # Layer utilization (%)
system.membus.power_state.pwrStateResidencyTicks::UNDEFINED 574225989500                       # Cumulative time (in ticks) in various power states
system.switch_cpus_1.dtb.walker.power_state.pwrStateResidencyTicks::UNDEFINED 574225989500                       # Cumulative time (in ticks) in various power states
system.switch_cpus_1.itb.walker.power_state.pwrStateResidencyTicks::UNDEFINED 574225989500                       # Cumulative time (in ticks) in various power states
system.switch_cpus_1.power_state.pwrStateResidencyTicks::OFF 574225989500                       # Cumulative time (in ticks) in various power states
system.switch_cpus.dtb.walker.power_state.pwrStateResidencyTicks::UNDEFINED 574225989500                       # Cumulative time (in ticks) in various power states
system.switch_cpus.itb.walker.power_state.pwrStateResidencyTicks::UNDEFINED 574225989500                       # Cumulative time (in ticks) in various power states
system.switch_cpus.power_state.numTransitions            1                       # Number of power state transitions
system.switch_cpus.power_state.pwrStateResidencyTicks::OFF 574225989500                       # Cumulative time (in ticks) in various power states
system.tol2bus.trans_dist::ReadResp            670595                       # Transaction distribution
system.tol2bus.trans_dist::WritebackDirty      6824237                       # Transaction distribution
system.tol2bus.trans_dist::WritebackClean         1629                       # Transaction distribution
system.tol2bus.trans_dist::CleanEvict         3055724                       # Transaction distribution
system.tol2bus.trans_dist::ReadExReq          3409389                       # Transaction distribution
system.tol2bus.trans_dist::ReadExResp         3409388                       # Transaction distribution
system.tol2bus.trans_dist::ReadCleanReq          1629                       # Transaction distribution
system.tol2bus.trans_dist::ReadSharedReq       668967                       # Transaction distribution
system.tol2bus.pkt_count_system.cpu.icache.mem_side::system.l2.cpu_side         4887                       # Packet count per connected master and slave (bytes)
system.tol2bus.pkt_count_system.cpu.dcache.mem_side::system.l2.cpu_side     12235064                       # Packet count per connected master and slave (bytes)
system.tol2bus.pkt_count::total              12239951                       # Packet count per connected master and slave (bytes)
system.tol2bus.pkt_size_system.cpu.icache.mem_side::system.l2.cpu_side       208512                       # Cumulative packet size per connected master and slave (bytes)
system.tol2bus.pkt_size_system.cpu.dcache.mem_side::system.l2.cpu_side    479364480                       # Cumulative packet size per connected master and slave (bytes)
system.tol2bus.pkt_size::total              479572992                       # Cumulative packet size per connected master and slave (bytes)
system.tol2bus.snoops                         5801607                       # Total snoops (count)
system.tol2bus.snoopTraffic                 218401344                       # Total snoop traffic (bytes)
system.tol2bus.snoop_fanout::samples          9881592                       # Request fanout histogram
system.tol2bus.snoop_fanout::mean            0.087071                       # Request fanout histogram
system.tol2bus.snoop_fanout::stdev           0.281939                       # Request fanout histogram
system.tol2bus.snoop_fanout::underflows             0      0.00%      0.00% # Request fanout histogram
system.tol2bus.snoop_fanout::0                9021193     91.29%     91.29% # Request fanout histogram
system.tol2bus.snoop_fanout::1                 860399      8.71%    100.00% # Request fanout histogram
system.tol2bus.snoop_fanout::2                      0      0.00%    100.00% # Request fanout histogram
system.tol2bus.snoop_fanout::3                      0      0.00%    100.00% # Request fanout histogram
system.tol2bus.snoop_fanout::4                      0      0.00%    100.00% # Request fanout histogram
system.tol2bus.snoop_fanout::overflows              0      0.00%    100.00% # Request fanout histogram
system.tol2bus.snoop_fanout::min_value              0                       # Request fanout histogram
system.tol2bus.snoop_fanout::max_value              1                       # Request fanout histogram
system.tol2bus.snoop_fanout::total            9881592                       # Request fanout histogram
system.tol2bus.reqLayer0.occupancy         7493329000                       # Layer occupancy (ticks)
system.tol2bus.reqLayer0.utilization              1.8                       # Layer utilization (%)
system.tol2bus.respLayer1.occupancy        6117531499                       # Layer occupancy (ticks)
system.tol2bus.respLayer1.utilization             1.5                       # Layer utilization (%)
system.tol2bus.respLayer0.occupancy           2443999                       # Layer occupancy (ticks)
system.tol2bus.respLayer0.utilization             0.0                       # Layer utilization (%)
system.tol2bus.power_state.pwrStateResidencyTicks::UNDEFINED 574225989500                       # Cumulative time (in ticks) in various power states
system.voltage_domain.voltage                       1                       # Voltage in Volts
system.clk_domain.clock                          1000                       # Clock period in ticks
system.l2.demand_hits::.switch_cpus_1.inst          676                       # number of demand (read+write) hits
system.l2.demand_hits::.switch_cpus_1.data        28719                       # number of demand (read+write) hits
system.l2.demand_hits::total                    29395                       # number of demand (read+write) hits
system.l2.overall_hits::.switch_cpus_1.inst          676                       # number of overall hits
system.l2.overall_hits::.switch_cpus_1.data        28719                       # number of overall hits
system.l2.overall_hits::total                   29395                       # number of overall hits
system.l2.demand_misses::.switch_cpus_1.inst          953                       # number of demand (read+write) misses
system.l2.demand_misses::.switch_cpus_1.data      4049637                       # number of demand (read+write) misses
system.l2.demand_misses::total                4050590                       # number of demand (read+write) misses
system.l2.overall_misses::.switch_cpus_1.inst          953                       # number of overall misses
system.l2.overall_misses::.switch_cpus_1.data      4049637                       # number of overall misses
system.l2.overall_misses::total               4050590                       # number of overall misses
system.l2.demand_miss_latency::.switch_cpus_1.inst    109166500                       # number of demand (read+write) miss cycles
system.l2.demand_miss_latency::.switch_cpus_1.data 381571434000                       # number of demand (read+write) miss cycles
system.l2.demand_miss_latency::total     381680600500                       # number of demand (read+write) miss cycles
system.l2.overall_miss_latency::.switch_cpus_1.inst    109166500                       # number of overall miss cycles
system.l2.overall_miss_latency::.switch_cpus_1.data 381571434000                       # number of overall miss cycles
system.l2.overall_miss_latency::total    381680600500                       # number of overall miss cycles
system.l2.demand_accesses::.switch_cpus_1.inst         1629                       # number of demand (read+write) accesses
system.l2.demand_accesses::.switch_cpus_1.data      4078356                       # number of demand (read+write) accesses
system.l2.demand_accesses::total              4079985                       # number of demand (read+write) accesses
system.l2.overall_accesses::.switch_cpus_1.inst         1629                       # number of overall (read+write) accesses
system.l2.overall_accesses::.switch_cpus_1.data      4078356                       # number of overall (read+write) accesses
system.l2.overall_accesses::total             4079985                       # number of overall (read+write) accesses
system.l2.demand_miss_rate::.switch_cpus_1.inst     0.585021                       # miss rate for demand accesses
system.l2.demand_miss_rate::.switch_cpus_1.data     0.992958                       # miss rate for demand accesses
system.l2.demand_miss_rate::total            0.992795                       # miss rate for demand accesses
[...]
system.cpu.dcache.overall_miss_latency::.switch_cpus.data  65898260500                       # number of overall miss cycles
system.cpu.dcache.overall_miss_latency::.switch_cpus_1.data 455394223998                       # number of overall miss cycles
system.cpu.dcache.overall_miss_latency::total 521292484498                       # number of overall miss cycles
system.cpu.dcache.demand_accesses::.cpu.data     37648285                       # number of demand (read+write) accesses
system.cpu.dcache.demand_accesses::.switch_cpus.data      3769094                       # number of demand (read+write) accesses
system.cpu.dcache.demand_accesses::.switch_cpus_1.data    193164133                       # number of demand (read+write) accesses
system.cpu.dcache.demand_accesses::total    234581512                       # number of demand (read+write) accesses
system.cpu.dcache.overall_accesses::.cpu.data     37649613                       # number of overall (read+write) accesses
system.cpu.dcache.overall_accesses::.switch_cpus.data      3769094                       # number of overall (read+write) accesses
system.cpu.dcache.overall_accesses::.switch_cpus_1.data    193164133                       # number of overall (read+write) accesses
system.cpu.dcache.overall_accesses::total    234582840                       # number of overall (read+write) accesses
system.cpu.dcache.demand_miss_rate::.cpu.data     0.161913                       # miss rate for demand accesses
system.cpu.dcache.demand_miss_rate::.switch_cpus.data     0.173786                       # miss rate for demand accesses
system.cpu.dcache.demand_miss_rate::.switch_cpus_1.data     0.031643                       # miss rate for demand accesses
system.cpu.dcache.demand_miss_rate::total     0.054834                       # miss rate for demand accesses
system.cpu.dcache.overall_miss_rate::.cpu.data     0.161908                       # miss rate for overall accesses
system.cpu.dcache.overall_miss_rate::.switch_cpus.data     0.173786                       # miss rate for overall accesses
system.cpu.dcache.overall_miss_rate::.switch_cpus_1.data     0.031643                       # miss rate for overall accesses
system.cpu.dcache.overall_miss_rate::total     0.054834                       # miss rate for overall accesses
system.cpu.dcache.demand_avg_miss_latency::.switch_cpus.data 100605.573757                       # average overall miss latency
system.cpu.dcache.demand_avg_miss_latency::.switch_cpus_1.data 74504.621259                       # average overall miss latency
system.cpu.dcache.demand_avg_miss_latency::total 40526.316753                       # average overall miss latency
system.cpu.dcache.overall_avg_miss_latency::.switch_cpus.data 100605.573757                       # average overall miss latency
system.cpu.dcache.overall_avg_miss_latency::.switch_cpus_1.data 74504.621259                       # average overall miss latency
system.cpu.dcache.overall_avg_miss_latency::total 40526.269494                       # average overall miss latency
system.cpu.dcache.blocked_cycles::no_mshrs       131652                       # number of cycles access was blocked
system.cpu.dcache.blocked_cycles::no_targets          268                       # number of cycles access was blocked
system.cpu.dcache.blocked::no_mshrs              3779                       # number of cycles access was blocked
system.cpu.dcache.blocked::no_targets               1                       # number of cycles access was blocked
system.cpu.dcache.avg_blocked_cycles::no_mshrs    34.837788                       # average number of cycles each access was blocked
system.cpu.dcache.avg_blocked_cycles::no_targets          268                       # average number of cycles each access was blocked
system.cpu.dcache.writebacks::.writebacks     10156444                       # number of writebacks
system.cpu.dcache.writebacks::total          10156444                       # number of writebacks
system.cpu.dcache.demand_mshr_hits::.switch_cpus_1.data      2033939                       # number of demand (read+write) MSHR hits
system.cpu.dcache.demand_mshr_hits::total      2033939                       # number of demand (read+write) MSHR hits
system.cpu.dcache.overall_mshr_hits::.switch_cpus_1.data      2033939                       # number of overall MSHR hits
system.cpu.dcache.overall_mshr_hits::total      2033939                       # number of overall MSHR hits
system.cpu.dcache.demand_mshr_misses::.switch_cpus.data       655016                       # number of demand (read+write) MSHR misses
system.cpu.dcache.demand_mshr_misses::.switch_cpus_1.data      4078356                       # number of demand (read+write) MSHR misses
system.cpu.dcache.demand_mshr_misses::total      4733372                       # number of demand (read+write) MSHR misses
system.cpu.dcache.overall_mshr_misses::.switch_cpus.data       655016                       # number of overall MSHR misses
system.cpu.dcache.overall_mshr_misses::.switch_cpus_1.data      4078356                       # number of overall MSHR misses
system.cpu.dcache.overall_mshr_misses::total      4733372                       # number of overall MSHR misses
system.cpu.dcache.demand_mshr_miss_latency::.switch_cpus.data  65570752500                       # number of demand (read+write) MSHR miss cycles
system.cpu.dcache.demand_mshr_miss_latency::.switch_cpus_1.data 388336814498                       # number of demand (read+write) MSHR miss cycles
system.cpu.dcache.demand_mshr_miss_latency::total 453907566998                       # number of demand (read+write) MSHR miss cycles
system.cpu.dcache.overall_mshr_miss_latency::.switch_cpus.data  65570752500                       # number of overall MSHR miss cycles
system.cpu.dcache.overall_mshr_miss_latency::.switch_cpus_1.data 388336814498                       # number of overall MSHR miss cycles
system.cpu.dcache.overall_mshr_miss_latency::total 453907566998                       # number of overall MSHR miss cycles
system.cpu.dcache.demand_mshr_miss_rate::.switch_cpus.data     0.173786                       # mshr miss rate for demand accesses
system.cpu.dcache.demand_mshr_miss_rate::.switch_cpus_1.data     0.021113                       # mshr miss rate for demand accesses
system.cpu.dcache.demand_mshr_miss_rate::total     0.020178                       # mshr miss rate for demand accesses
system.cpu.dcache.overall_mshr_miss_rate::.switch_cpus.data     0.173786                       # mshr miss rate for overall accesses
system.cpu.dcache.overall_mshr_miss_rate::.switch_cpus_1.data     0.021113                       # mshr miss rate for overall accesses
system.cpu.dcache.overall_mshr_miss_rate::total     0.020178                       # mshr miss rate for overall accesses
system.cpu.dcache.demand_avg_mshr_miss_latency::.switch_cpus.data 100105.573757                       # average overall mshr miss latency
system.cpu.dcache.demand_avg_mshr_miss_latency::.switch_cpus_1.data 95218.959428                       # average overall mshr miss latency
system.cpu.dcache.demand_avg_mshr_miss_latency::total 95895.181490                       # average overall mshr miss latency
system.cpu.dcache.overall_avg_mshr_miss_latency::.switch_cpus.data 100105.573757                       # average overall mshr miss latency
system.cpu.dcache.overall_avg_mshr_miss_latency::.switch_cpus_1.data 95218.959428                       # average overall mshr miss latency
system.cpu.dcache.overall_avg_mshr_miss_latency::total 95895.181490                       # average overall mshr miss latency
system.cpu.dcache.replacements               10828623                       # number of replacements
system.cpu.dcache.ReadReq_hits::.cpu.data     30612527                       # number of ReadReq hits
system.cpu.dcache.ReadReq_hits::.switch_cpus.data      3114078                       # number of ReadReq hits
system.cpu.dcache.ReadReq_hits::.switch_cpus_1.data    136686977                       # number of ReadReq hits
system.cpu.dcache.ReadReq_hits::total       170413582                       # number of ReadReq hits
system.cpu.dcache.ReadReq_misses::.cpu.data        15154                       # number of ReadReq misses
system.cpu.dcache.ReadReq_misses::.switch_cpus_1.data      2702896                       # number of ReadReq misses
system.cpu.dcache.ReadReq_misses::total       2718050                       # number of ReadReq misses
system.cpu.dcache.ReadReq_miss_latency::.switch_cpus_1.data 126639493000                       # number of ReadReq miss cycles
system.cpu.dcache.ReadReq_miss_latency::total 126639493000                       # number of ReadReq miss cycles
system.cpu.dcache.ReadReq_accesses::.cpu.data     30627681                       # number of ReadReq accesses(hits+misses)
system.cpu.dcache.ReadReq_accesses::.switch_cpus.data      3114078                       # number of ReadReq accesses(hits+misses)
system.cpu.dcache.ReadReq_accesses::.switch_cpus_1.data    139389873                       # number of ReadReq accesses(hits+misses)
system.cpu.dcache.ReadReq_accesses::total    173131632                       # number of ReadReq accesses(hits+misses)
system.cpu.dcache.ReadReq_miss_rate::.cpu.data     0.000495                       # miss rate for ReadReq accesses
system.cpu.dcache.ReadReq_miss_rate::.switch_cpus_1.data     0.019391                       # miss rate for ReadReq accesses
system.cpu.dcache.ReadReq_miss_rate::total     0.015699                       # miss rate for ReadReq accesses
system.cpu.dcache.ReadReq_avg_miss_latency::.switch_cpus_1.data 46853.261465                       # average ReadReq miss latency
system.cpu.dcache.ReadReq_avg_miss_latency::total 46592.039514                       # average ReadReq miss latency
system.cpu.dcache.ReadReq_mshr_hits::.switch_cpus_1.data      2033929                       # number of ReadReq MSHR hits
system.cpu.dcache.ReadReq_mshr_hits::total      2033929                       # number of ReadReq MSHR hits
system.cpu.dcache.ReadReq_mshr_misses::.switch_cpus_1.data       668967                       # number of ReadReq MSHR misses
system.cpu.dcache.ReadReq_mshr_misses::total       668967                       # number of ReadReq MSHR misses
system.cpu.dcache.ReadReq_mshr_miss_latency::.switch_cpus_1.data  61287214500                       # number of ReadReq MSHR miss cycles
system.cpu.dcache.ReadReq_mshr_miss_latency::total  61287214500                       # number of ReadReq MSHR miss cycles
system.cpu.dcache.ReadReq_mshr_miss_rate::.switch_cpus_1.data     0.004799                       # mshr miss rate for ReadReq accesses
system.cpu.dcache.ReadReq_mshr_miss_rate::total     0.003864                       # mshr miss rate for ReadReq accesses
system.cpu.dcache.ReadReq_avg_mshr_miss_latency::.switch_cpus_1.data 91614.705210                       # average ReadReq mshr miss latency
system.cpu.dcache.ReadReq_avg_mshr_miss_latency::total 91614.705210                       # average ReadReq mshr miss latency
system.cpu.dcache.WriteReq_hits::.cpu.data       940008                       # number of WriteReq hits
system.cpu.dcache.WriteReq_hits::.switch_cpus_1.data     50364861                       # number of WriteReq hits
system.cpu.dcache.WriteReq_hits::total       51304869                       # number of WriteReq hits
system.cpu.dcache.WriteReq_misses::.cpu.data      6080596                       # number of WriteReq misses
system.cpu.dcache.WriteReq_misses::.switch_cpus.data       655016                       # number of WriteReq misses
system.cpu.dcache.WriteReq_misses::.switch_cpus_1.data      3409399                       # number of WriteReq misses
system.cpu.dcache.WriteReq_misses::total     10145011                       # number of WriteReq misses
system.cpu.dcache.WriteReq_miss_latency::.switch_cpus.data  65898260500                       # number of WriteReq miss cycles
system.cpu.dcache.WriteReq_miss_latency::.switch_cpus_1.data 328754730998                       # number of WriteReq miss cycles
system.cpu.dcache.WriteReq_miss_latency::total 394652991498                       # number of WriteReq miss cycles
system.cpu.dcache.WriteReq_accesses::.cpu.data      7020604                       # number of WriteReq accesses(hits+misses)
system.cpu.dcache.WriteReq_accesses::.switch_cpus.data       655016                       # number of WriteReq accesses(hits+misses)
system.cpu.dcache.WriteReq_accesses::.switch_cpus_1.data     53774260                       # number of WriteReq accesses(hits+misses)
system.cpu.dcache.WriteReq_accesses::total     61449880                       # number of WriteReq accesses(hits+misses)
system.cpu.dcache.WriteReq_miss_rate::.cpu.data     0.866107                       # miss rate for WriteReq accesses
system.cpu.dcache.WriteReq_miss_rate::.switch_cpus.data            1                       # miss rate for WriteReq accesses
system.cpu.dcache.WriteReq_miss_rate::.switch_cpus_1.data     0.063402                       # miss rate for WriteReq accesses
system.cpu.dcache.WriteReq_miss_rate::total     0.165094                       # miss rate for WriteReq accesses
system.cpu.dcache.WriteReq_avg_miss_latency::.switch_cpus.data 100605.573757                       # average WriteReq miss latency
system.cpu.dcache.WriteReq_avg_miss_latency::.switch_cpus_1.data 96426.006753                       # average WriteReq miss latency
system.cpu.dcache.WriteReq_avg_miss_latency::total 38901.189116                       # average WriteReq miss latency
system.cpu.dcache.WriteReq_mshr_hits::.switch_cpus_1.data           10                       # number of WriteReq MSHR hits
system.cpu.dcache.WriteReq_mshr_hits::total           10                       # number of WriteReq MSHR hits
system.cpu.dcache.WriteReq_mshr_misses::.switch_cpus.data       655016                       # number of WriteReq MSHR misses
system.cpu.dcache.WriteReq_mshr_misses::.switch_cpus_1.data      3409389                       # number of WriteReq MSHR misses
system.cpu.dcache.WriteReq_mshr_misses::total      4064405                       # number of WriteReq MSHR misses
system.cpu.dcache.WriteReq_mshr_miss_latency::.switch_cpus.data  65570752500                       # number of WriteReq MSHR miss cycles
system.cpu.dcache.WriteReq_mshr_miss_latency::.switch_cpus_1.data 327049599998                       # number of WriteReq MSHR miss cycles
system.cpu.dcache.WriteReq_mshr_miss_latency::total 392620352498                       # number of WriteReq MSHR miss cycles
system.cpu.dcache.WriteReq_mshr_miss_rate::.switch_cpus.data            1                       # mshr miss rate for WriteReq accesses
system.cpu.dcache.WriteReq_mshr_miss_rate::.switch_cpus_1.data     0.063402                       # mshr miss rate for WriteReq accesses
system.cpu.dcache.WriteReq_mshr_miss_rate::total     0.066142                       # mshr miss rate for WriteReq accesses
system.cpu.dcache.WriteReq_avg_mshr_miss_latency::.switch_cpus.data 100105.573757                       # average WriteReq mshr miss latency
system.cpu.dcache.WriteReq_avg_mshr_miss_latency::.switch_cpus_1.data 95926.161549                       # average WriteReq mshr miss latency
system.cpu.dcache.WriteReq_avg_mshr_miss_latency::total 96599.712011                       # average WriteReq mshr miss latency
system.cpu.dcache.SoftPFReq_hits::.cpu.data         1313                       # number of SoftPFReq hits
system.cpu.dcache.SoftPFReq_hits::total          1313                       # number of SoftPFReq hits
system.cpu.dcache.SoftPFReq_misses::.cpu.data           15                       # number of SoftPFReq misses
system.cpu.dcache.SoftPFReq_misses::total           15                       # number of SoftPFReq misses
system.cpu.dcache.SoftPFReq_accesses::.cpu.data         1328                       # number of SoftPFReq accesses(hits+misses)
system.cpu.dcache.SoftPFReq_accesses::total         1328                       # number of SoftPFReq accesses(hits+misses)
system.cpu.dcache.SoftPFReq_miss_rate::.cpu.data     0.011295                       # miss rate for SoftPFReq accesses
system.cpu.dcache.SoftPFReq_miss_rate::total     0.011295                       # miss rate for SoftPFReq accesses
system.cpu.dcache.power_state.pwrStateResidencyTicks::UNDEFINED 574225989500                       # Cumulative time (in ticks) in various power states
system.cpu.dcache.tags.tagsinuse           511.984242                       # Cycle average of tags in use
system.cpu.dcache.tags.total_refs           232548899                       # Total number of references to valid blocks.
system.cpu.dcache.tags.sampled_refs          10829135                       # Sample count of references to valid blocks.
system.cpu.dcache.tags.avg_refs             21.474374                       # Average number of references to valid blocks.
system.cpu.dcache.tags.warmup_cycle              1500                       # Cycle when the warmup percentage was hit.
system.cpu.dcache.tags.occ_blocks::.cpu.data    82.890176                       # Average occupied blocks per requestor
system.cpu.dcache.tags.occ_blocks::.switch_cpus.data    65.676890                       # Average occupied blocks per requestor
system.cpu.dcache.tags.occ_blocks::.switch_cpus_1.data   363.417177                       # Average occupied blocks per requestor
system.cpu.dcache.tags.occ_percent::.cpu.data     0.161895                       # Average percentage of cache occupancy
system.cpu.dcache.tags.occ_percent::.switch_cpus.data     0.128275                       # Average percentage of cache occupancy
system.cpu.dcache.tags.occ_percent::.switch_cpus_1.data     0.709799                       # Average percentage of cache occupancy
system.cpu.dcache.tags.occ_percent::total     0.999969                       # Average percentage of cache occupancy
system.cpu.dcache.tags.occ_task_id_blocks::1024          512                       # Occupied blocks per task id
system.cpu.dcache.tags.age_task_id_blocks_1024::0          202                       # Occupied blocks per task id
system.cpu.dcache.tags.age_task_id_blocks_1024::1          310                       # Occupied blocks per task id
system.cpu.dcache.tags.occ_task_id_percent::1024            1                       # Percentage of cache occupancy per task id
system.cpu.dcache.tags.tag_accesses         949160495                       # Number of tag accesses
system.cpu.dcache.tags.data_accesses        949160495                       # Number of data accesses
system.cpu.dcache.tags.cache_friendly               0                       # Number of cache friendly accesses
system.cpu.dcache.tags.cache_averse         232548899                       # Number of cache averse accesses
system.cpu.dcache.tags.cache_friendly_victims            0                       # Number of cache friendly victims
system.cpu.dcache.tags.cache_averse_victims     10829135                       # Number of cache averse victims
system.cpu.dcache.tags.OPT_hits                     0                       # Number of OPT hits
system.cpu.dcache.tags.OPT_misses                   0                       # Number of OPT misses
system.cpu.dcache.tags.OPT_nan              234582840                       # Number of OPT nan
system.cpu.dcache.tags.power_state.pwrStateResidencyTicks::UNDEFINED 574225989500                       # Cumulative time (in ticks) in various power states
system.cpu.power_state.numTransitions               2                       # Number of power state transitions
system.cpu.power_state.pwrStateResidencyTicks::ON  92572652000                       # Cumulative time (in ticks) in various power states
system.cpu.power_state.pwrStateResidencyTicks::OFF 481653337500                       # Cumulative time (in ticks) in various power states

---------- End Simulation Statistics   ----------
