
---------- Begin Simulation Statistics ----------
final_tick                               1365354437500                       # Number of ticks from beginning of simulation (restored from checkpoints and never reset)
host_inst_rate                                 744401                       # Simulator instruction rate (inst/s)
host_mem_usage                                 752692                       # Number of bytes of host memory used
host_op_rate                                  1259004                       # Simulator op (including micro ops) rate (op/s)
host_seconds                                  1882.86                       # Real time elapsed on the host
host_tick_rate                              115272729                       # Simulator tick rate (ticks/s)
sim_freq                                 1000000000000                       # Frequency of simulated ticks
sim_insts                                  1401600552                       # Number of instructions simulated
sim_ops                                    2370525294                       # Number of ops (including micro ops) simulated
sim_seconds                                  0.217042                       # Number of seconds simulated
sim_ticks                                217042095250                       # Number of ticks simulated
system.cpu.committedInsts                           0                       # Number of instructions committed
system.cpu.committedOps                             0                       # Number of ops (including micro ops) committed
system.cpu.dtb.rdAccesses                           0                       # TLB accesses on read requests
system.cpu.dtb.rdMisses                             0                       # TLB misses on read requests
system.cpu.dtb.wrAccesses                           0                       # TLB accesses on write requests
system.cpu.dtb.wrMisses                             0                       # TLB misses on write requests
system.cpu.idle_fraction                            0                       # Percentage of idle cycles
system.cpu.itb.rdAccesses                           0                       # TLB accesses on read requests
system.cpu.itb.rdMisses                             0                       # TLB misses on read requests
system.cpu.itb.wrAccesses                           0                       # TLB accesses on write requests
system.cpu.itb.wrMisses                             0                       # TLB misses on write requests
system.cpu.not_idle_fraction                        1                       # Percentage of non-idle cycles
system.cpu.numCycles                                0                       # number of cpu cycles simulated
system.cpu.numWorkItemsCompleted                    0                       # number of work items this cpu completed
system.cpu.numWorkItemsStarted                      0                       # number of work items this cpu started
system.cpu.num_busy_cycles                          0                       # Number of busy cycles
system.cpu.num_conditional_control_insts            0                       # number of instructions that are conditional controls
system.cpu.num_fp_alu_accesses                      0                       # Number of float alu accesses
system.cpu.num_fp_insts                             0                       # number of float instructions
system.cpu.num_fp_register_reads                    0                       # number of times the floating registers were read
system.cpu.num_fp_register_writes                   0                       # number of times the floating registers were written
system.cpu.num_func_calls                           0                       # number of times a function call or return occured
system.cpu.num_idle_cycles                          0                       # Number of idle cycles
system.cpu.num_int_alu_accesses                     0                       # Number of integer alu accesses
system.cpu.num_int_insts                            0                       # number of integer instructions
system.cpu.num_int_register_reads                   0                       # number of times the integer registers were read
system.cpu.num_int_register_writes                  0                       # number of times the integer registers were written
system.cpu.num_load_insts                           0                       # Number of load instructions
system.cpu.num_mem_refs                             0                       # number of memory refs
system.cpu.num_store_insts                          0                       # Number of store instructions
system.cpu.num_vec_alu_accesses                     0                       # Number of vector alu accesses
system.cpu.num_vec_insts                            0                       # number of vector instructions
system.cpu.num_vec_register_reads                   0                       # number of times the vector registers were read
system.cpu.num_vec_register_writes                  0                       # number of times the vector registers were written
system.cpu.op_class::No_OpClass                     0                       # Class of executed instruction
system.cpu.op_class::IntAlu                         0                       # Class of executed instruction
system.cpu.op_class::IntMult                        0                       # Class of executed instruction
system.cpu.op_class::IntDiv                         0                       # Class of executed instruction
system.cpu.op_class::FloatAdd                       0                       # Class of executed instruction
system.cpu.op_class::FloatCmp                       0                       # Class of executed instruction
system.cpu.op_class::FloatCvt                       0                       # Class of executed instruction
system.cpu.op_class::FloatMult                      0                       # Class of executed instruction
system.cpu.op_class::FloatMultAcc                   0                       # Class of executed instruction
system.cpu.op_class::FloatDiv                       0                       # Class of executed instruction
system.cpu.op_class::FloatMisc                      0                       # Class of executed instruction
system.cpu.op_class::FloatSqrt                      0                       # Class of executed instruction
system.cpu.op_class::SimdAdd                        0                       # Class of executed instruction
system.cpu.op_class::SimdAddAcc                     0                       # Class of executed instruction
system.cpu.op_class::SimdAlu                        0                       # Class of executed instruction
system.cpu.op_class::SimdCmp                        0                       # Class of executed instruction
system.cpu.op_class::SimdCvt                        0                       # Class of executed instruction
system.cpu.op_class::SimdMisc                       0                       # Class of executed instruction
system.cpu.op_class::SimdMult                       0                       # Class of executed instruction
system.cpu.op_class::SimdMultAcc                    0                       # Class of executed instruction
system.cpu.op_class::SimdShift                      0                       # Class of executed instruction
system.cpu.op_class::SimdShiftAcc                   0                       # Class of executed instruction
system.cpu.op_class::SimdDiv                        0                       # Class of executed instruction
system.cpu.op_class::SimdSqrt                       0                       # Class of executed instruction
system.cpu.op_class::SimdFloatAdd                   0                       # Class of executed instruction
system.cpu.op_class::SimdFloatAlu                   0                       # Class of executed instruction
system.cpu.op_class::SimdFloatCmp                   0                       # Class of executed instruction
system.cpu.op_class::SimdFloatCvt                   0                       # Class of executed instruction
system.cpu.op_class::SimdFloatDiv                   0                       # Class of executed instruction
system.cpu.op_class::SimdFloatMisc                  0                       # Class of executed instruction
system.cpu.op_class::SimdFloatMult                  0                       # Class of executed instruction
system.cpu.op_class::SimdFloatMultAcc               0                       # Class of executed instruction
system.cpu.op_class::SimdFloatSqrt                  0                       # Class of executed instruction
system.cpu.op_class::SimdReduceAdd                  0                       # Class of executed instruction
system.cpu.op_class::SimdReduceAlu                  0                       # Class of executed instruction
system.cpu.op_class::SimdReduceCmp                  0                       # Class of executed instruction
system.cpu.op_class::SimdFloatReduceAdd             0                       # Class of executed instruction
system.cpu.op_class::SimdFloatReduceCmp             0                       # Class of executed instruction
system.cpu.op_class::SimdAes                        0                       # Class of executed instruction
system.cpu.op_class::SimdAesMix                     0                       # Class of executed instruction
system.cpu.op_class::SimdSha1Hash                   0                       # Class of executed instruction
system.cpu.op_class::SimdSha1Hash2                  0                       # Class of executed instruction
system.cpu.op_class::SimdSha256Hash                 0                       # Class of executed instruction
system.cpu.op_class::SimdSha256Hash2                0                       # Class of executed instruction
system.cpu.op_class::SimdShaSigma2                  0                       # Class of executed instruction
system.cpu.op_class::SimdShaSigma3                  0                       # Class of executed instruction
system.cpu.op_class::SimdPredAlu                    0                       # Class of executed instruction
system.cpu.op_class::MemRead                        0                       # Class of executed instruction
system.cpu.op_class::MemWrite                       0                       # Class of executed instruction
system.cpu.op_class::FloatMemRead                   0                       # Class of executed instruction
system.cpu.op_class::FloatMemWrite                  0                       # Class of executed instruction
system.cpu.op_class::IprAccess                      0                       # Class of executed instruction
system.cpu.op_class::InstPrefetch                   0                       # Class of executed instruction
system.cpu.op_class::total                          0                       # Class of executed instruction
system.cpu.workload.numSyscalls                     5                       # Number of system calls
system.membus.snoop_filter.hit_multi_requests            0                       # Number of requests hitting in the snoop filter with multiple (>1) holders of the requested data.
system.membus.snoop_filter.hit_multi_snoops            0                       # Number of snoops hitting in the snoop filter with multiple (>1) holders of the requested data.
system.membus.snoop_filter.hit_single_requests       776402                       # Number of requests hitting in the snoop filter with a single holder of the requested data.
system.membus.snoop_filter.hit_single_snoops            0                       # Number of snoops hitting in the snoop filter with a single holder of the requested data.
system.membus.snoop_filter.tot_requests       1552743                       # Total number of requests made to the snoop filter.
system.membus.snoop_filter.tot_snoops               0                       # Total number of snoops made to the snoop filter.
system.switch_cpus.committedInsts                   0                       # Number of instructions committed
system.switch_cpus.committedOps                     0                       # Number of ops (including micro ops) committed
system.switch_cpus.dtb.rdAccesses                   0                       # TLB accesses on read requests
system.switch_cpus.dtb.rdMisses                     0                       # TLB misses on read requests
system.switch_cpus.dtb.wrAccesses                   0                       # TLB accesses on write requests
system.switch_cpus.dtb.wrMisses                     0                       # TLB misses on write requests
system.switch_cpus.idle_fraction                    0                       # Percentage of idle cycles
system.switch_cpus.itb.rdAccesses                   0                       # TLB accesses on read requests
system.switch_cpus.itb.rdMisses                     0                       # TLB misses on read requests
system.switch_cpus.itb.wrAccesses                   0                       # TLB accesses on write requests
system.switch_cpus.itb.wrMisses                     0                       # TLB misses on write requests
system.switch_cpus.not_idle_fraction                1                       # Percentage of non-idle cycles
system.switch_cpus.numCycles                        0                       # number of cpu cycles simulated
system.switch_cpus.numWorkItemsCompleted            0                       # number of work items this cpu completed
system.switch_cpus.numWorkItemsStarted              0                       # number of work items this cpu started
system.switch_cpus.num_busy_cycles                  0                       # Number of busy cycles
system.switch_cpus.num_conditional_control_insts            0                       # number of instructions that are conditional controls
system.switch_cpus.num_fp_alu_accesses              0                       # Number of float alu accesses
system.switch_cpus.num_fp_insts                     0                       # number of float instructions
system.switch_cpus.num_fp_register_reads            0                       # number of times the floating registers were read
system.switch_cpus.num_fp_register_writes            0                       # number of times the floating registers were written
system.switch_cpus.num_func_calls                   0                       # number of times a function call or return occured
system.switch_cpus.num_idle_cycles                  0                       # Number of idle cycles
system.switch_cpus.num_int_alu_accesses             0                       # Number of integer alu accesses
system.switch_cpus.num_int_insts                    0                       # number of integer instructions
system.switch_cpus.num_int_register_reads            0                       # number of times the integer registers were read
system.switch_cpus.num_int_register_writes            0                       # number of times the integer registers were written
system.switch_cpus.num_load_insts                   0                       # Number of load instructions
system.switch_cpus.num_mem_refs                     0                       # number of memory refs
system.switch_cpus.num_store_insts                  0                       # Number of store instructions
system.switch_cpus.num_vec_alu_accesses             0                       # Number of vector alu accesses
system.switch_cpus.num_vec_insts                    0                       # number of vector instructions
system.switch_cpus.num_vec_register_reads            0                       # number of times the vector registers were read
system.switch_cpus.num_vec_register_writes            0                       # number of times the vector registers were written
system.switch_cpus.op_class::No_OpClass             0                       # Class of executed instruction
system.switch_cpus.op_class::IntAlu                 0                       # Class of executed instruction
system.switch_cpus.op_class::IntMult                0                       # Class of executed instruction
system.switch_cpus.op_class::IntDiv                 0                       # Class of executed instruction
system.switch_cpus.op_class::FloatAdd               0                       # Class of executed instruction
system.switch_cpus.op_class::FloatCmp               0                       # Class of executed instruction
system.switch_cpus.op_class::FloatCvt               0                       # Class of executed instruction
system.switch_cpus.op_class::FloatMult              0                       # Class of executed instruction
system.switch_cpus.op_class::FloatMultAcc            0                       # Class of executed instruction
system.switch_cpus.op_class::FloatDiv               0                       # Class of executed instruction
system.switch_cpus.op_class::FloatMisc              0                       # Class of executed instruction
system.switch_cpus.op_class::FloatSqrt              0                       # Class of executed instruction
system.switch_cpus.op_class::SimdAdd                0                       # Class of executed instruction
system.switch_cpus.op_class::SimdAddAcc             0                       # Class of executed instruction
system.switch_cpus.op_class::SimdAlu                0                       # Class of executed instruction
system.switch_cpus.op_class::SimdCmp                0                       # Class of executed instruction
system.switch_cpus.op_class::SimdCvt                0                       # Class of executed instruction
system.switch_cpus.op_class::SimdMisc               0                       # Class of executed instruction
system.switch_cpus.op_class::SimdMult               0                       # Class of executed instruction
system.switch_cpus.op_class::SimdMultAcc            0                       # Class of executed instruction
system.switch_cpus.op_class::SimdShift              0                       # Class of executed instruction
system.switch_cpus.op_class::SimdShiftAcc            0                       # Class of executed instruction
system.switch_cpus.op_class::SimdDiv                0                       # Class of executed instruction
system.switch_cpus.op_class::SimdSqrt               0                       # Class of executed instruction
system.switch_cpus.op_class::SimdFloatAdd            0                       # Class of executed instruction
system.switch_cpus.op_class::SimdFloatAlu            0                       # Class of executed instruction
system.switch_cpus.op_class::SimdFloatCmp            0                       # Class of executed instruction
system.switch_cpus.op_class::SimdFloatCvt            0                       # Class of executed instruction
system.switch_cpus.op_class::SimdFloatDiv            0                       # Class of executed instruction
system.switch_cpus.op_class::SimdFloatMisc            0                       # Class of executed instruction
system.switch_cpus.op_class::SimdFloatMult            0                       # Class of executed instruction
system.switch_cpus.op_class::SimdFloatMultAcc            0                       # Class of executed instruction
system.switch_cpus.op_class::SimdFloatSqrt            0                       # Class of executed instruction
system.switch_cpus.op_class::SimdReduceAdd            0                       # Class of executed instruction
system.switch_cpus.op_class::SimdReduceAlu            0                       # Class of executed instruction
system.switch_cpus.op_class::SimdReduceCmp            0                       # Class of executed instruction
system.switch_cpus.op_class::SimdFloatReduceAdd            0                       # Class of executed instruction
system.switch_cpus.op_class::SimdFloatReduceCmp            0                       # Class of executed instruction
system.switch_cpus.op_class::SimdAes                0                       # Class of executed instruction
system.switch_cpus.op_class::SimdAesMix             0                       # Class of executed instruction
system.switch_cpus.op_class::SimdSha1Hash            0                       # Class of executed instruction
system.switch_cpus.op_class::SimdSha1Hash2            0                       # Class of executed instruction
system.switch_cpus.op_class::SimdSha256Hash            0                       # Class of executed instruction
system.switch_cpus.op_class::SimdSha256Hash2            0                       # Class of executed instruction
system.switch_cpus.op_class::SimdShaSigma2            0                       # Class of executed instruction
system.switch_cpus.op_class::SimdShaSigma3            0                       # Class of executed instruction
system.switch_cpus.op_class::SimdPredAlu            0                       # Class of executed instruction
system.switch_cpus.op_class::MemRead                0                       # Class of executed instruction
system.switch_cpus.op_class::MemWrite               0                       # Class of executed instruction
system.switch_cpus.op_class::FloatMemRead            0                       # Class of executed instruction
system.switch_cpus.op_class::FloatMemWrite            0                       # Class of executed instruction
system.switch_cpus.op_class::IprAccess              0                       # Class of executed instruction
system.switch_cpus.op_class::InstPrefetch            0                       # Class of executed instruction
system.switch_cpus.op_class::total                  0                       # Class of executed instruction
system.switch_cpus_1.branchPred.BTBCorrect            0                       # Number of correct BTB predictions (this stat may not work properly.
system.switch_cpus_1.branchPred.BTBHitPct          nan                       # BTB Hit Percentage
system.switch_cpus_1.branchPred.BTBHits             0                       # Number of BTB hits
system.switch_cpus_1.branchPred.BTBLookups            0                       # Number of BTB lookups
system.switch_cpus_1.branchPred.RASInCorrect           19                       # Number of incorrect RAS predictions.
system.switch_cpus_1.branchPred.condIncorrect      8688466                       # Number of conditional branches incorrect
system.switch_cpus_1.branchPred.condPredicted    109875472                       # Number of conditional branches predicted
system.switch_cpus_1.branchPred.indirectHits     36157034                       # Number of indirect target hits.
system.switch_cpus_1.branchPred.indirectLookups     61173684                       # Number of indirect predictor lookups.
system.switch_cpus_1.branchPred.indirectMisses     25016650                       # Number of indirect misses.
system.switch_cpus_1.branchPred.lookups     116679275                       # Number of BP lookups
system.switch_cpus_1.branchPred.usedRAS       2203878                       # Number of times the RAS was used to get a target.
system.switch_cpus_1.branchPredindirectMispredicted      4725775                       # Number of mispredicted indirect branches.
system.switch_cpus_1.cc_regfile_reads       309459258                       # number of cc regfile reads
system.switch_cpus_1.cc_regfile_writes      283187065                       # number of cc regfile writes
system.switch_cpus_1.commit.amos                    0                       # Number of atomic instructions committed
system.switch_cpus_1.commit.branchMispredicts      8688872                       # The number of times a branch was mispredicted
system.switch_cpus_1.commit.branches         48492597                       # Number of branches committed
system.switch_cpus_1.commit.bw_lim_events     30495115                       # number cycles where commit BW limit reached
system.switch_cpus_1.commit.commitNonSpecStalls          330                       # The number of times commit has been forced to stall to communicate backwards
system.switch_cpus_1.commit.commitSquashedInsts    376990214                       # The number of squashed insts skipped by commit
system.switch_cpus_1.commit.committedInsts    301600549                       # Number of instructions committed
system.switch_cpus_1.commit.committedOps    509063036                       # Number of ops (including micro ops) committed
system.switch_cpus_1.commit.committed_per_cycle::samples    379151688                       # Number of insts commited each cycle
system.switch_cpus_1.commit.committed_per_cycle::mean     1.342637                       # Number of insts commited each cycle
system.switch_cpus_1.commit.committed_per_cycle::stdev     2.378356                       # Number of insts commited each cycle
system.switch_cpus_1.commit.committed_per_cycle::underflows            0      0.00%      0.00% # Number of insts commited each cycle
system.switch_cpus_1.commit.committed_per_cycle::0    230968919     60.92%     60.92% # Number of insts commited each cycle
system.switch_cpus_1.commit.committed_per_cycle::1     54910886     14.48%     75.40% # Number of insts commited each cycle
system.switch_cpus_1.commit.committed_per_cycle::2     19615650      5.17%     80.57% # Number of insts commited each cycle
system.switch_cpus_1.commit.committed_per_cycle::3     21701032      5.72%     86.30% # Number of insts commited each cycle
system.switch_cpus_1.commit.committed_per_cycle::4     10592198      2.79%     89.09% # Number of insts commited each cycle
system.switch_cpus_1.commit.committed_per_cycle::5      4724969      1.25%     90.34% # Number of insts commited each cycle
system.switch_cpus_1.commit.committed_per_cycle::6      3137236      0.83%     91.16% # Number of insts commited each cycle
system.switch_cpus_1.commit.committed_per_cycle::7      3005683      0.79%     91.96% # Number of insts commited each cycle
system.switch_cpus_1.commit.committed_per_cycle::8     30495115      8.04%    100.00% # Number of insts commited each cycle
system.switch_cpus_1.commit.committed_per_cycle::overflows            0      0.00%    100.00% # Number of insts commited each cycle
system.switch_cpus_1.commit.committed_per_cycle::min_value            0                       # Number of insts commited each cycle
system.switch_cpus_1.commit.committed_per_cycle::max_value            8                       # Number of insts commited each cycle
system.switch_cpus_1.commit.committed_per_cycle::total    379151688                       # Number of insts commited each cycle
system.switch_cpus_1.commit.fp_insts           546802                       # Number of committed floating point instructions.
system.switch_cpus_1.commit.function_calls      1221984                       # Number of function calls committed.
system.switch_cpus_1.commit.int_insts       508551069                       # Number of committed integer instructions.
system.switch_cpus_1.commit.loads            87554995                       # Number of loads committed
system.switch_cpus_1.commit.membars                 8                       # Number of memory barriers committed
system.switch_cpus_1.commit.op_class_0::No_OpClass       511349      0.10%      0.10% # Class of committed instruction
system.switch_cpus_1.commit.op_class_0::IntAlu    389862952     76.58%     76.68% # Class of committed instruction
system.switch_cpus_1.commit.op_class_0::IntMult          343      0.00%     76.68% # Class of committed instruction
system.switch_cpus_1.commit.op_class_0::IntDiv          146      0.00%     76.68% # Class of committed instruction
system.switch_cpus_1.commit.op_class_0::FloatAdd           11      0.00%     76.68% # Class of committed instruction
system.switch_cpus_1.commit.op_class_0::FloatCmp            0      0.00%     76.68% # Class of committed instruction
system.switch_cpus_1.commit.op_class_0::FloatCvt            0      0.00%     76.68% # Class of committed instruction
system.switch_cpus_1.commit.op_class_0::FloatMult            0      0.00%     76.68% # Class of committed instruction
system.switch_cpus_1.commit.op_class_0::FloatMultAcc            0      0.00%     76.68% # Class of committed instruction
system.switch_cpus_1.commit.op_class_0::FloatDiv            0      0.00%     76.68% # Class of committed instruction
system.switch_cpus_1.commit.op_class_0::FloatMisc            0      0.00%     76.68% # Class of committed instruction
system.switch_cpus_1.commit.op_class_0::FloatSqrt            0      0.00%     76.68% # Class of committed instruction
system.switch_cpus_1.commit.op_class_0::SimdAdd            0      0.00%     76.68% # Class of committed instruction
system.switch_cpus_1.commit.op_class_0::SimdAddAcc            0      0.00%     76.68% # Class of committed instruction
system.switch_cpus_1.commit.op_class_0::SimdAlu           64      0.00%     76.68% # Class of committed instruction
system.switch_cpus_1.commit.op_class_0::SimdCmp            0      0.00%     76.68% # Class of committed instruction
system.switch_cpus_1.commit.op_class_0::SimdCvt           88      0.00%     76.68% # Class of committed instruction
system.switch_cpus_1.commit.op_class_0::SimdMisc          132      0.00%     76.69% # Class of committed instruction
system.switch_cpus_1.commit.op_class_0::SimdMult            0      0.00%     76.69% # Class of committed instruction
system.switch_cpus_1.commit.op_class_0::SimdMultAcc            0      0.00%     76.69% # Class of committed instruction
system.switch_cpus_1.commit.op_class_0::SimdShift            0      0.00%     76.69% # Class of committed instruction
system.switch_cpus_1.commit.op_class_0::SimdShiftAcc            0      0.00%     76.69% # Class of committed instruction
system.switch_cpus_1.commit.op_class_0::SimdDiv            0      0.00%     76.69% # Class of committed instruction
system.switch_cpus_1.commit.op_class_0::SimdSqrt            0      0.00%     76.69% # Class of committed instruction
system.switch_cpus_1.commit.op_class_0::SimdFloatAdd            0      0.00%     76.69% # Class of committed instruction
system.switch_cpus_1.commit.op_class_0::SimdFloatAlu            0      0.00%     76.69% # Class of committed instruction
system.switch_cpus_1.commit.op_class_0::SimdFloatCmp            0      0.00%     76.69% # Class of committed instruction
system.switch_cpus_1.commit.op_class_0::SimdFloatCvt            0      0.00%     76.69% # Class of committed instruction
system.switch_cpus_1.commit.op_class_0::SimdFloatDiv            0      0.00%     76.69% # Class of committed instruction
system.switch_cpus_1.commit.op_class_0::SimdFloatMisc            0      0.00%     76.69% # Class of committed instruction
system.switch_cpus_1.commit.op_class_0::SimdFloatMult            0      0.00%     76.69% # Class of committed instruction
system.switch_cpus_1.commit.op_class_0::SimdFloatMultAcc            0      0.00%     76.69% # Class of committed instruction
system.switch_cpus_1.commit.op_class_0::SimdFloatSqrt            0      0.00%     76.69% # Class of committed instruction
system.switch_cpus_1.commit.op_class_0::SimdReduceAdd            0      0.00%     76.69% # Class of committed instruction
system.switch_cpus_1.commit.op_class_0::SimdReduceAlu            0      0.00%     76.69% # Class of committed instruction
system.switch_cpus_1.commit.op_class_0::SimdReduceCmp            0      0.00%     76.69% # Class of committed instruction
system.switch_cpus_1.commit.op_class_0::SimdFloatReduceAdd            0      0.00%     76.69% # Class of committed instruction
system.switch_cpus_1.commit.op_class_0::SimdFloatReduceCmp            0      0.00%     76.69% # Class of committed instruction
system.switch_cpus_1.commit.op_class_0::SimdAes            0      0.00%     76.69% # Class of committed instruction
system.switch_cpus_1.commit.op_class_0::SimdAesMix            0      0.00%     76.69% # Class of committed instruction
system.switch_cpus_1.commit.op_class_0::SimdSha1Hash            0      0.00%     76.69% # Class of committed instruction
system.switch_cpus_1.commit.op_class_0::SimdSha1Hash2            0      0.00%     76.69% # Class of committed instruction
system.switch_cpus_1.commit.op_class_0::SimdSha256Hash            0      0.00%     76.69% # Class of committed instruction
system.switch_cpus_1.commit.op_class_0::SimdSha256Hash2            0      0.00%     76.69% # Class of committed instruction
system.switch_cpus_1.commit.op_class_0::SimdShaSigma2            0      0.00%     76.69% # Class of committed instruction
system.switch_cpus_1.commit.op_class_0::SimdShaSigma3            0      0.00%     76.69% # Class of committed instruction
system.switch_cpus_1.commit.op_class_0::SimdPredAlu            0      0.00%     76.69% # Class of committed instruction
system.switch_cpus_1.commit.op_class_0::MemRead     87360275     17.16%     93.85% # Class of committed instruction
system.switch_cpus_1.commit.op_class_0::MemWrite     30781208      6.05%     99.89% # Class of committed instruction
system.switch_cpus_1.commit.op_class_0::FloatMemRead       194720      0.04%     99.93% # Class of committed instruction
system.switch_cpus_1.commit.op_class_0::FloatMemWrite       351748      0.07%    100.00% # Class of committed instruction
system.switch_cpus_1.commit.op_class_0::IprAccess            0      0.00%    100.00% # Class of committed instruction
system.switch_cpus_1.commit.op_class_0::InstPrefetch            0      0.00%    100.00% # Class of committed instruction
system.switch_cpus_1.commit.op_class_0::total    509063036                       # Class of committed instruction
system.switch_cpus_1.commit.refs            118687951                       # Number of memory references committed
system.switch_cpus_1.commit.swp_count               0                       # Number of s/w prefetches committed
system.switch_cpus_1.commit.vec_insts               0                       # Number of committed Vector instructions.
system.switch_cpus_1.committedInsts         301600549                       # Number of Instructions Simulated
system.switch_cpus_1.committedOps           509063036                       # Number of Ops (including micro ops) Simulated
system.switch_cpus_1.cpi                     1.439269                       # CPI: Cycles Per Instruction
system.switch_cpus_1.cpi_total               1.439269                       # CPI: Total CPI of All Threads
system.switch_cpus_1.decode.BlockedCycles    254098108                       # Number of cycles decode is blocked
system.switch_cpus_1.decode.DecodedInsts   1052771146                       # Number of instructions handled by decode
system.switch_cpus_1.decode.IdleCycles       31480514                       # Number of cycles decode is idle
system.switch_cpus_1.decode.RunCycles       105059318                       # Number of cycles decode is running
system.switch_cpus_1.decode.SquashCycles      8810763                       # Number of cycles decode is squashing
system.switch_cpus_1.decode.UnblockCycles     34584091                       # Number of cycles decode is unblocking
system.switch_cpus_1.dtb.rdAccesses         124153371                       # TLB accesses on read requests
system.switch_cpus_1.dtb.rdMisses             1717354                       # TLB misses on read requests
system.switch_cpus_1.dtb.wrAccesses          42944505                       # TLB accesses on write requests
system.switch_cpus_1.dtb.wrMisses              430452                       # TLB misses on write requests
system.switch_cpus_1.fetch.Branches         116679275                       # Number of branches that fetch encountered
system.switch_cpus_1.fetch.CacheLines        76415980                       # Number of cache lines fetched
system.switch_cpus_1.fetch.Cycles           417535292                       # Number of cycles fetch has run and was not squashing or blocked
system.switch_cpus_1.fetch.IcacheSquashes          972                       # Number of outstanding Icache misses that were squashed
system.switch_cpus_1.fetch.IcacheWaitRetryStallCycles          126                       # Number of stall cycles due to full MSHR
system.switch_cpus_1.fetch.Insts            732700416                       # Number of instructions fetch has processed
system.switch_cpus_1.fetch.MiscStallCycles          621                       # Number of cycles fetch has spent waiting on interrupts, or bad addresses, or out of MSHRs
system.switch_cpus_1.fetch.PendingTrapStallCycles         4753                       # Number of stall cycles due to pending traps
system.switch_cpus_1.fetch.SquashCycles      17621526                       # Number of cycles fetch has spent squashing
system.switch_cpus_1.fetch.branchRate        0.268794                       # Number of branch fetches per cycle
system.switch_cpus_1.fetch.icacheStallCycles      7681258                       # Number of cycles fetch is stalled on an Icache miss
system.switch_cpus_1.fetch.predictedBranches     38360912                       # Number of branches that fetch has predicted taken
system.switch_cpus_1.fetch.rate              1.687922                       # Number of inst fetches per cycle
system.switch_cpus_1.fetch.rateDist::samples    434032813                       # Number of instructions fetched each cycle (Total)
system.switch_cpus_1.fetch.rateDist::mean     2.812384                       # Number of instructions fetched each cycle (Total)
system.switch_cpus_1.fetch.rateDist::stdev     3.496610                       # Number of instructions fetched each cycle (Total)
system.switch_cpus_1.fetch.rateDist::underflows            0      0.00%      0.00% # Number of instructions fetched each cycle (Total)
system.switch_cpus_1.fetch.rateDist::0      238406658     54.93%     54.93% # Number of instructions fetched each cycle (Total)
system.switch_cpus_1.fetch.rateDist::1       11451994      2.64%     57.57% # Number of instructions fetched each cycle (Total)
system.switch_cpus_1.fetch.rateDist::2       14664736      3.38%     60.95% # Number of instructions fetched each cycle (Total)
system.switch_cpus_1.fetch.rateDist::3       11277116      2.60%     63.54% # Number of instructions fetched each cycle (Total)
system.switch_cpus_1.fetch.rateDist::4        9785900      2.25%     65.80% # Number of instructions fetched each cycle (Total)
system.switch_cpus_1.fetch.rateDist::5       16605399      3.83%     69.62% # Number of instructions fetched each cycle (Total)
system.switch_cpus_1.fetch.rateDist::6       10559590      2.43%     72.06% # Number of instructions fetched each cycle (Total)
system.switch_cpus_1.fetch.rateDist::7        9725334      2.24%     74.30% # Number of instructions fetched each cycle (Total)
system.switch_cpus_1.fetch.rateDist::8      111556086     25.70%    100.00% # Number of instructions fetched each cycle (Total)
system.switch_cpus_1.fetch.rateDist::overflows            0      0.00%    100.00% # Number of instructions fetched each cycle (Total)
system.switch_cpus_1.fetch.rateDist::min_value            0                       # Number of instructions fetched each cycle (Total)
system.switch_cpus_1.fetch.rateDist::max_value            8                       # Number of instructions fetched each cycle (Total)
system.switch_cpus_1.fetch.rateDist::total    434032813                       # Number of instructions fetched each cycle (Total)
system.switch_cpus_1.fp_regfile_reads         2532442                       # number of floating regfile reads
system.switch_cpus_1.fp_regfile_writes        2322089                       # number of floating regfile writes
system.switch_cpus_1.idleCycles                 51377                       # Total number of cycles that the CPU has spent unscheduled due to idling
system.switch_cpus_1.iew.branchMispredicts     10700990                       # Number of branch mispredicts detected at execute
system.switch_cpus_1.iew.exec_branches       62729283                       # Number of branches executed
system.switch_cpus_1.iew.exec_nop                   0                       # number of nop insts executed
system.switch_cpus_1.iew.exec_rate           1.688341                       # Inst execution rate
system.switch_cpus_1.iew.exec_refs          169255196                       # number of memory reference insts executed
system.switch_cpus_1.iew.exec_stores         42944367                       # Number of stores executed
system.switch_cpus_1.iew.exec_swp                   0                       # number of swp insts executed
system.switch_cpus_1.iew.iewBlockCycles     105680405                       # Number of cycles IEW is blocking
system.switch_cpus_1.iew.iewDispLoadInsts    155740703                       # Number of dispatched load instructions
system.switch_cpus_1.iew.iewDispNonSpecInsts           76                       # Number of dispatched non-speculative instructions
system.switch_cpus_1.iew.iewDispSquashedInsts        92956                       # Number of squashed instructions skipped by dispatch
system.switch_cpus_1.iew.iewDispStoreInsts     62626859                       # Number of dispatched store instructions
system.switch_cpus_1.iew.iewDispatchedInsts    888325048                       # Number of instructions dispatched to IQ
system.switch_cpus_1.iew.iewExecLoadInsts    126310829                       # Number of load instructions executed
system.switch_cpus_1.iew.iewExecSquashedInsts     23528184                       # Number of squashed instructions skipped in execute
system.switch_cpus_1.iew.iewExecutedInsts    732882027                       # Number of executed instructions
system.switch_cpus_1.iew.iewIQFullEvents       775219                       # Number of times the IQ has become full, causing a stall
system.switch_cpus_1.iew.iewIdleCycles              0                       # Number of cycles IEW is idle
system.switch_cpus_1.iew.iewLSQFullEvents     19316851                       # Number of times the LSQ has become full, causing a stall
system.switch_cpus_1.iew.iewSquashCycles      8810763                       # Number of cycles IEW is squashing
system.switch_cpus_1.iew.iewUnblockCycles     20753986                       # Number of cycles IEW is unblocking
system.switch_cpus_1.iew.lsq.thread0.blockedLoads            0                       # Number of blocked loads due to partial load-store forwarding
system.switch_cpus_1.iew.lsq.thread0.cacheBlocked       640523                       # Number of times an access to memory failed due to the cache being blocked
system.switch_cpus_1.iew.lsq.thread0.forwLoads     12531198                       # Number of loads that had data forwarded from stores
system.switch_cpus_1.iew.lsq.thread0.ignoredResponses        40869                       # Number of memory responses ignored because the instruction is squashed
system.switch_cpus_1.iew.lsq.thread0.invAddrLoads            0                       # Number of loads ignored due to an invalid address
system.switch_cpus_1.iew.lsq.thread0.invAddrSwpfs            0                       # Number of software prefetches ignored due to an invalid address
system.switch_cpus_1.iew.lsq.thread0.memOrderViolation        36327                       # Number of memory ordering violations
system.switch_cpus_1.iew.lsq.thread0.rescheduledLoads        15099                       # Number of loads that were rescheduled
system.switch_cpus_1.iew.lsq.thread0.squashedLoads     68185708                       # Number of loads squashed
system.switch_cpus_1.iew.lsq.thread0.squashedStores     31493903                       # Number of stores squashed
system.switch_cpus_1.iew.memOrderViolationEvents        36327                       # Number of memory order violations
system.switch_cpus_1.iew.predictedNotTakenIncorrect      9533774                       # Number of branches that were predicted not taken incorrectly
system.switch_cpus_1.iew.predictedTakenIncorrect      1167216                       # Number of branches that were predicted taken incorrectly
system.switch_cpus_1.iew.wb_consumers       848223402                       # num instructions consuming a value
system.switch_cpus_1.iew.wb_count           718420449                       # cumulative count of insts written-back
system.switch_cpus_1.iew.wb_fanout           0.654717                       # average fanout of values written-back
system.switch_cpus_1.iew.wb_producers       555346316                       # num instructions producing a value
system.switch_cpus_1.iew.wb_rate             1.655026                       # insts written-back per cycle
system.switch_cpus_1.iew.wb_sent            726967257                       # cumulative count of insts sent to commit
system.switch_cpus_1.int_regfile_reads     1110379436                       # number of integer regfile reads
system.switch_cpus_1.int_regfile_writes     614930675                       # number of integer regfile writes
system.switch_cpus_1.ipc                     0.694797                       # IPC: Instructions Per Cycle
system.switch_cpus_1.ipc_total               0.694797                       # IPC: Total IPC of All Threads
system.switch_cpus_1.iq.FU_type_0::No_OpClass      3824252      0.51%      0.51% # Type of FU issued
system.switch_cpus_1.iq.FU_type_0::IntAlu    574139981     75.90%     76.41% # Type of FU issued
system.switch_cpus_1.iq.FU_type_0::IntMult          363      0.00%     76.41% # Type of FU issued
system.switch_cpus_1.iq.FU_type_0::IntDiv          151      0.00%     76.41% # Type of FU issued
system.switch_cpus_1.iq.FU_type_0::FloatAdd           13      0.00%     76.41% # Type of FU issued
system.switch_cpus_1.iq.FU_type_0::FloatCmp            0      0.00%     76.41% # Type of FU issued
system.switch_cpus_1.iq.FU_type_0::FloatCvt         3343      0.00%     76.41% # Type of FU issued
system.switch_cpus_1.iq.FU_type_0::FloatMult            0      0.00%     76.41% # Type of FU issued
system.switch_cpus_1.iq.FU_type_0::FloatMultAcc            0      0.00%     76.41% # Type of FU issued
system.switch_cpus_1.iq.FU_type_0::FloatDiv            0      0.00%     76.41% # Type of FU issued
system.switch_cpus_1.iq.FU_type_0::FloatMisc            0      0.00%     76.41% # Type of FU issued
system.switch_cpus_1.iq.FU_type_0::FloatSqrt            0      0.00%     76.41% # Type of FU issued
system.switch_cpus_1.iq.FU_type_0::SimdAdd            0      0.00%     76.41% # Type of FU issued
system.switch_cpus_1.iq.FU_type_0::SimdAddAcc            0      0.00%     76.41% # Type of FU issued
system.switch_cpus_1.iq.FU_type_0::SimdAlu           98      0.00%     76.41% # Type of FU issued
system.switch_cpus_1.iq.FU_type_0::SimdCmp            0      0.00%     76.41% # Type of FU issued
system.switch_cpus_1.iq.FU_type_0::SimdCvt           88      0.00%     76.41% # Type of FU issued
system.switch_cpus_1.iq.FU_type_0::SimdMisc       102753      0.01%     76.42% # Type of FU issued
system.switch_cpus_1.iq.FU_type_0::SimdMult            0      0.00%     76.42% # Type of FU issued
system.switch_cpus_1.iq.FU_type_0::SimdMultAcc            0      0.00%     76.42% # Type of FU issued
system.switch_cpus_1.iq.FU_type_0::SimdShift            0      0.00%     76.42% # Type of FU issued
system.switch_cpus_1.iq.FU_type_0::SimdShiftAcc            0      0.00%     76.42% # Type of FU issued
system.switch_cpus_1.iq.FU_type_0::SimdDiv            0      0.00%     76.42% # Type of FU issued
system.switch_cpus_1.iq.FU_type_0::SimdSqrt            0      0.00%     76.42% # Type of FU issued
system.switch_cpus_1.iq.FU_type_0::SimdFloatAdd            0      0.00%     76.42% # Type of FU issued
system.switch_cpus_1.iq.FU_type_0::SimdFloatAlu            0      0.00%     76.42% # Type of FU issued
system.switch_cpus_1.iq.FU_type_0::SimdFloatCmp            0      0.00%     76.42% # Type of FU issued
system.switch_cpus_1.iq.FU_type_0::SimdFloatCvt        36677      0.00%     76.43% # Type of FU issued
system.switch_cpus_1.iq.FU_type_0::SimdFloatDiv            0      0.00%     76.43% # Type of FU issued
system.switch_cpus_1.iq.FU_type_0::SimdFloatMisc            0      0.00%     76.43% # Type of FU issued
system.switch_cpus_1.iq.FU_type_0::SimdFloatMult            0      0.00%     76.43% # Type of FU issued
system.switch_cpus_1.iq.FU_type_0::SimdFloatMultAcc            0      0.00%     76.43% # Type of FU issued
system.switch_cpus_1.iq.FU_type_0::SimdFloatSqrt            0      0.00%     76.43% # Type of FU issued
system.switch_cpus_1.iq.FU_type_0::SimdReduceAdd            0      0.00%     76.43% # Type of FU issued
system.switch_cpus_1.iq.FU_type_0::SimdReduceAlu            0      0.00%     76.43% # Type of FU issued
system.switch_cpus_1.iq.FU_type_0::SimdReduceCmp            0      0.00%     76.43% # Type of FU issued
system.switch_cpus_1.iq.FU_type_0::SimdFloatReduceAdd            0      0.00%     76.43% # Type of FU issued
system.switch_cpus_1.iq.FU_type_0::SimdFloatReduceCmp            0      0.00%     76.43% # Type of FU issued
system.switch_cpus_1.iq.FU_type_0::SimdAes            0      0.00%     76.43% # Type of FU issued
system.switch_cpus_1.iq.FU_type_0::SimdAesMix            0      0.00%     76.43% # Type of FU issued
system.switch_cpus_1.iq.FU_type_0::SimdSha1Hash            0      0.00%     76.43% # Type of FU issued
system.switch_cpus_1.iq.FU_type_0::SimdSha1Hash2            0      0.00%     76.43% # Type of FU issued
system.switch_cpus_1.iq.FU_type_0::SimdSha256Hash            0      0.00%     76.43% # Type of FU issued
system.switch_cpus_1.iq.FU_type_0::SimdSha256Hash2            0      0.00%     76.43% # Type of FU issued
system.switch_cpus_1.iq.FU_type_0::SimdShaSigma2            0      0.00%     76.43% # Type of FU issued
system.switch_cpus_1.iq.FU_type_0::SimdShaSigma3            0      0.00%     76.43% # Type of FU issued
system.switch_cpus_1.iq.FU_type_0::SimdPredAlu            0      0.00%     76.43% # Type of FU issued
system.switch_cpus_1.iq.FU_type_0::MemRead    130579162     17.26%     93.69% # Type of FU issued
system.switch_cpus_1.iq.FU_type_0::MemWrite     43027540      5.69%     99.38% # Type of FU issued
system.switch_cpus_1.iq.FU_type_0::FloatMemRead      2274096      0.30%     99.68% # Type of FU issued
system.switch_cpus_1.iq.FU_type_0::FloatMemWrite      2421694      0.32%    100.00% # Type of FU issued
system.switch_cpus_1.iq.FU_type_0::IprAccess            0      0.00%    100.00% # Type of FU issued
system.switch_cpus_1.iq.FU_type_0::InstPrefetch            0      0.00%    100.00% # Type of FU issued
system.switch_cpus_1.iq.FU_type_0::total    756410211                       # Type of FU issued
system.switch_cpus_1.iq.fp_alu_accesses       5878940                       # Number of floating point alu accesses
system.switch_cpus_1.iq.fp_inst_queue_reads     10720173                       # Number of floating instruction queue reads
system.switch_cpus_1.iq.fp_inst_queue_wakeup_accesses      4736633                       # Number of floating instruction queue wakeup accesses
system.switch_cpus_1.iq.fp_inst_queue_writes      9835068                       # Number of floating instruction queue writes
system.switch_cpus_1.iq.fu_busy_cnt          17005294                       # FU busy when requested
system.switch_cpus_1.iq.fu_busy_rate         0.022482                       # FU busy rate (busy events/executed inst)
system.switch_cpus_1.iq.fu_full::No_OpClass            0      0.00%      0.00% # attempts to use FU when none available
system.switch_cpus_1.iq.fu_full::IntAlu      13186633     77.54%     77.54% # attempts to use FU when none available
system.switch_cpus_1.iq.fu_full::IntMult            0      0.00%     77.54% # attempts to use FU when none available
system.switch_cpus_1.iq.fu_full::IntDiv             0      0.00%     77.54% # attempts to use FU when none available
system.switch_cpus_1.iq.fu_full::FloatAdd            0      0.00%     77.54% # attempts to use FU when none available
system.switch_cpus_1.iq.fu_full::FloatCmp            0      0.00%     77.54% # attempts to use FU when none available
system.switch_cpus_1.iq.fu_full::FloatCvt           31      0.00%     77.54% # attempts to use FU when none available
system.switch_cpus_1.iq.fu_full::FloatMult            0      0.00%     77.54% # attempts to use FU when none available
system.switch_cpus_1.iq.fu_full::FloatMultAcc            0      0.00%     77.54% # attempts to use FU when none available
system.switch_cpus_1.iq.fu_full::FloatDiv            0      0.00%     77.54% # attempts to use FU when none available
system.switch_cpus_1.iq.fu_full::FloatMisc            0      0.00%     77.54% # attempts to use FU when none available
system.switch_cpus_1.iq.fu_full::FloatSqrt            0      0.00%     77.54% # attempts to use FU when none available
system.switch_cpus_1.iq.fu_full::SimdAdd            0      0.00%     77.54% # attempts to use FU when none available
system.switch_cpus_1.iq.fu_full::SimdAddAcc            0      0.00%     77.54% # attempts to use FU when none available
system.switch_cpus_1.iq.fu_full::SimdAlu            4      0.00%     77.54% # attempts to use FU when none available
system.switch_cpus_1.iq.fu_full::SimdCmp            0      0.00%     77.54% # attempts to use FU when none available
system.switch_cpus_1.iq.fu_full::SimdCvt            2      0.00%     77.54% # attempts to use FU when none available
system.switch_cpus_1.iq.fu_full::SimdMisc            2      0.00%     77.54% # attempts to use FU when none available
system.switch_cpus_1.iq.fu_full::SimdMult            0      0.00%     77.54% # attempts to use FU when none available
system.switch_cpus_1.iq.fu_full::SimdMultAcc            0      0.00%     77.54% # attempts to use FU when none available
system.switch_cpus_1.iq.fu_full::SimdShift            0      0.00%     77.54% # attempts to use FU when none available
system.switch_cpus_1.iq.fu_full::SimdShiftAcc            0      0.00%     77.54% # attempts to use FU when none available
system.switch_cpus_1.iq.fu_full::SimdDiv            0      0.00%     77.54% # attempts to use FU when none available
system.switch_cpus_1.iq.fu_full::SimdSqrt            0      0.00%     77.54% # attempts to use FU when none available
system.switch_cpus_1.iq.fu_full::SimdFloatAdd            0      0.00%     77.54% # attempts to use FU when none available
system.switch_cpus_1.iq.fu_full::SimdFloatAlu            0      0.00%     77.54% # attempts to use FU when none available
system.switch_cpus_1.iq.fu_full::SimdFloatCmp            0      0.00%     77.54% # attempts to use FU when none available
system.switch_cpus_1.iq.fu_full::SimdFloatCvt            0      0.00%     77.54% # attempts to use FU when none available
system.switch_cpus_1.iq.fu_full::SimdFloatDiv            0      0.00%     77.54% # attempts to use FU when none available
system.switch_cpus_1.iq.fu_full::SimdFloatMisc            0      0.00%     77.54% # attempts to use FU when none available
system.switch_cpus_1.iq.fu_full::SimdFloatMult            0      0.00%     77.54% # attempts to use FU when none available
system.switch_cpus_1.iq.fu_full::SimdFloatMultAcc            0      0.00%     77.54% # attempts to use FU when none available
system.switch_cpus_1.iq.fu_full::SimdFloatSqrt            0      0.00%     77.54% # attempts to use FU when none available
system.switch_cpus_1.iq.fu_full::SimdReduceAdd            0      0.00%     77.54% # attempts to use FU when none available
system.switch_cpus_1.iq.fu_full::SimdReduceAlu            0      0.00%     77.54% # attempts to use FU when none available
system.switch_cpus_1.iq.fu_full::SimdReduceCmp            0      0.00%     77.54% # attempts to use FU when none available
system.switch_cpus_1.iq.fu_full::SimdFloatReduceAdd            0      0.00%     77.54% # attempts to use FU when none available
system.switch_cpus_1.iq.fu_full::SimdFloatReduceCmp            0      0.00%     77.54% # attempts to use FU when none available
system.switch_cpus_1.iq.fu_full::SimdAes            0      0.00%     77.54% # attempts to use FU when none available
system.switch_cpus_1.iq.fu_full::SimdAesMix            0      0.00%     77.54% # attempts to use FU when none available
system.switch_cpus_1.iq.fu_full::SimdSha1Hash            0      0.00%     77.54% # attempts to use FU when none available
system.switch_cpus_1.iq.fu_full::SimdSha1Hash2            0      0.00%     77.54% # attempts to use FU when none available
system.switch_cpus_1.iq.fu_full::SimdSha256Hash            0      0.00%     77.54% # attempts to use FU when none available
system.switch_cpus_1.iq.fu_full::SimdSha256Hash2            0      0.00%     77.54% # attempts to use FU when none available
system.switch_cpus_1.iq.fu_full::SimdShaSigma2            0      0.00%     77.54% # attempts to use FU when none available
system.switch_cpus_1.iq.fu_full::SimdShaSigma3            0      0.00%     77.54% # attempts to use FU when none available
system.switch_cpus_1.iq.fu_full::SimdPredAlu            0      0.00%     77.54% # attempts to use FU when none available
system.switch_cpus_1.iq.fu_full::MemRead      2107191     12.39%     89.94% # attempts to use FU when none available
system.switch_cpus_1.iq.fu_full::MemWrite       671334      3.95%     93.88% # attempts to use FU when none available
system.switch_cpus_1.iq.fu_full::FloatMemRead       771199      4.54%     98.42% # attempts to use FU when none available
system.switch_cpus_1.iq.fu_full::FloatMemWrite       268898      1.58%    100.00% # attempts to use FU when none available
system.switch_cpus_1.iq.fu_full::IprAccess            0      0.00%    100.00% # attempts to use FU when none available
system.switch_cpus_1.iq.fu_full::InstPrefetch            0      0.00%    100.00% # attempts to use FU when none available
system.switch_cpus_1.iq.int_alu_accesses    763712313                       # Number of integer alu accesses
system.switch_cpus_1.iq.int_inst_queue_reads   1958864999                       # Number of integer instruction queue reads
system.switch_cpus_1.iq.int_inst_queue_wakeup_accesses    713683816                       # Number of integer instruction queue wakeup accesses
system.switch_cpus_1.iq.int_inst_queue_writes   1257785105                       # Number of integer instruction queue writes
system.switch_cpus_1.iq.iqInstsAdded        888319483                       # Number of instructions added to the IQ (excludes non-spec)
system.switch_cpus_1.iq.iqInstsIssued       756410211                       # Number of instructions issued
system.switch_cpus_1.iq.iqNonSpecInstsAdded         5565                       # Number of non-speculative instructions added to the IQ
system.switch_cpus_1.iq.iqSquashedInstsExamined    379262011                       # Number of squashed instructions iterated over during squash; mainly for profiling
system.switch_cpus_1.iq.iqSquashedInstsIssued      5726643                       # Number of squashed instructions issued
system.switch_cpus_1.iq.iqSquashedNonSpecRemoved         5235                       # Number of squashed non-spec instructions that were removed
system.switch_cpus_1.iq.iqSquashedOperandsExamined    535990599                       # Number of squashed operands that are examined and possibly removed from graph
system.switch_cpus_1.iq.issued_per_cycle::samples    434032813                       # Number of insts issued each cycle
system.switch_cpus_1.iq.issued_per_cycle::mean     1.742749                       # Number of insts issued each cycle
system.switch_cpus_1.iq.issued_per_cycle::stdev     2.432997                       # Number of insts issued each cycle
system.switch_cpus_1.iq.issued_per_cycle::underflows            0      0.00%      0.00% # Number of insts issued each cycle
system.switch_cpus_1.iq.issued_per_cycle::0    238123419     54.86%     54.86% # Number of insts issued each cycle
system.switch_cpus_1.iq.issued_per_cycle::1     37366329      8.61%     63.47% # Number of insts issued each cycle
system.switch_cpus_1.iq.issued_per_cycle::2     33654514      7.75%     71.23% # Number of insts issued each cycle
system.switch_cpus_1.iq.issued_per_cycle::3     22474827      5.18%     76.40% # Number of insts issued each cycle
system.switch_cpus_1.iq.issued_per_cycle::4     24253859      5.59%     81.99% # Number of insts issued each cycle
system.switch_cpus_1.iq.issued_per_cycle::5     24028605      5.54%     87.53% # Number of insts issued each cycle
system.switch_cpus_1.iq.issued_per_cycle::6     24258115      5.59%     93.12% # Number of insts issued each cycle
system.switch_cpus_1.iq.issued_per_cycle::7     17381938      4.00%     97.12% # Number of insts issued each cycle
system.switch_cpus_1.iq.issued_per_cycle::8     12491207      2.88%    100.00% # Number of insts issued each cycle
system.switch_cpus_1.iq.issued_per_cycle::overflows            0      0.00%    100.00% # Number of insts issued each cycle
system.switch_cpus_1.iq.issued_per_cycle::min_value            0                       # Number of insts issued each cycle
system.switch_cpus_1.iq.issued_per_cycle::max_value            8                       # Number of insts issued each cycle
system.switch_cpus_1.iq.issued_per_cycle::total    434032813                       # Number of insts issued each cycle
system.switch_cpus_1.iq.rate                 1.742543                       # Inst issue rate
system.switch_cpus_1.iq.vec_alu_accesses            0                       # Number of vector alu accesses
system.switch_cpus_1.iq.vec_inst_queue_reads            0                       # Number of vector instruction queue reads
system.switch_cpus_1.iq.vec_inst_queue_wakeup_accesses            0                       # Number of vector instruction queue wakeup accesses
system.switch_cpus_1.iq.vec_inst_queue_writes            0                       # Number of vector instruction queue writes
system.switch_cpus_1.itb.rdAccesses                 0                       # TLB accesses on read requests
system.switch_cpus_1.itb.rdMisses                   0                       # TLB misses on read requests
system.switch_cpus_1.itb.wrAccesses          76416515                       # TLB accesses on write requests
system.switch_cpus_1.itb.wrMisses                 605                       # TLB misses on write requests
system.switch_cpus_1.memDep0.conflictingLoads     29700371                       # Number of conflicting loads.
system.switch_cpus_1.memDep0.conflictingStores     16844004                       # Number of conflicting stores.
system.switch_cpus_1.memDep0.insertedLoads    155740703                       # Number of loads inserted to the mem dependence unit.
system.switch_cpus_1.memDep0.insertedStores     62626859                       # Number of stores inserted to the mem dependence unit.
system.switch_cpus_1.misc_regfile_reads     310326981                       # number of misc regfile reads
system.switch_cpus_1.numCycles              434084190                       # number of cpu cycles simulated
system.switch_cpus_1.numWorkItemsCompleted            0                       # number of work items this cpu completed
system.switch_cpus_1.numWorkItemsStarted            0                       # number of work items this cpu started
system.switch_cpus_1.rename.BlockCycles     154351815                       # Number of cycles rename is blocking
system.switch_cpus_1.rename.CommittedMaps    647203503                       # Number of HB maps that are committed
system.switch_cpus_1.rename.IQFullEvents     38666101                       # Number of times rename has blocked due to IQ full
system.switch_cpus_1.rename.IdleCycles       46116893                       # Number of cycles rename is idle
system.switch_cpus_1.rename.LQFullEvents     14014106                       # Number of times rename has blocked due to LQ full
system.switch_cpus_1.rename.ROBFullEvents      2465814                       # Number of times rename has blocked due to ROB full
system.switch_cpus_1.rename.RenameLookups   2501139918                       # Number of register rename lookups that rename has made
system.switch_cpus_1.rename.RenamedInsts    993645538                       # Number of instructions processed by rename
system.switch_cpus_1.rename.RenamedOperands   1211664841                       # Number of destination operands rename has renamed
system.switch_cpus_1.rename.RunCycles       123376661                       # Number of cycles rename is running
system.switch_cpus_1.rename.SQFullEvents     43016585                       # Number of times rename has blocked due to SQ full
system.switch_cpus_1.rename.SquashCycles      8810763                       # Number of cycles rename is squashing
system.switch_cpus_1.rename.UnblockCycles    101376532                       # Number of cycles rename is unblocking
system.switch_cpus_1.rename.UndoneMaps      564461338                       # Number of HB maps that are undone due to squashing
system.switch_cpus_1.rename.fp_rename_lookups      4927001                       # Number of floating rename lookups
system.switch_cpus_1.rename.int_rename_lookups   1594453214                       # Number of integer rename lookups
system.switch_cpus_1.rename.serializeStallCycles          131                       # count of cycles rename stalled for serializing inst
system.switch_cpus_1.rename.serializingInsts            5                       # count of serializing insts renamed
system.switch_cpus_1.rename.skidInsts       118157764                       # count of insts added to the skid buffer
system.switch_cpus_1.rename.tempSerializingInsts            5                       # count of temporary serializing insts renamed
system.switch_cpus_1.rob.rob_reads         1233462447                       # The number of ROB reads
system.switch_cpus_1.rob.rob_writes        1827651210                       # The number of ROB writes
system.switch_cpus_1.timesIdled                   397                       # Number of times that the entire CPU went into an idle state and unscheduled itself
system.tol2bus.snoop_filter.hit_multi_requests          265                       # Number of requests hitting in the snoop filter with multiple (>1) holders of the requested data.
system.tol2bus.snoop_filter.hit_multi_snoops            0                       # Number of snoops hitting in the snoop filter with multiple (>1) holders of the requested data.
system.tol2bus.snoop_filter.hit_single_requests      4763653                       # Number of requests hitting in the snoop filter with a single holder of the requested data.
system.tol2bus.snoop_filter.hit_single_snoops         5049                       # Number of snoops hitting in the snoop filter with a single holder of the requested data.
system.tol2bus.snoop_filter.tot_requests      9498033                       # Total number of requests made to the snoop filter.
system.tol2bus.snoop_filter.tot_snoops           5049                       # Total number of snoops made to the snoop filter.
system.tol3bus.snoop_filter.hit_multi_requests            0                       # Number of requests hitting in the snoop filter with multiple (>1) holders of the requested data.
system.tol3bus.snoop_filter.hit_multi_snoops            0                       # Number of snoops hitting in the snoop filter with multiple (>1) holders of the requested data.
system.tol3bus.snoop_filter.hit_single_requests      2888867                       # Number of requests hitting in the snoop filter with a single holder of the requested data.
system.tol3bus.snoop_filter.hit_single_snoops         9741                       # Number of snoops hitting in the snoop filter with a single holder of the requested data.
system.tol3bus.snoop_filter.tot_requests      5777588                       # Total number of requests made to the snoop filter.
system.tol3bus.snoop_filter.tot_snoops           9741                       # Total number of snoops made to the snoop filter.
system.membus.trans_dist::ReadResp             492243                       # Transaction distribution
system.membus.trans_dist::WritebackDirty       396774                       # Transaction distribution
system.membus.trans_dist::CleanEvict           379628                       # Transaction distribution
system.membus.trans_dist::ReadExReq            284098                       # Transaction distribution
system.membus.trans_dist::ReadExResp           284098                       # Transaction distribution
system.membus.trans_dist::ReadSharedReq        492243                       # Transaction distribution
system.membus.pkt_count_system.l3.mem_side::system.mem_ctrls.port      2329084                       # Packet count per connected master and slave (bytes)
system.membus.pkt_count_system.l3.mem_side::total      2329084                       # Packet count per connected master and slave (bytes)
system.membus.pkt_count::total                2329084                       # Packet count per connected master and slave (bytes)
system.membus.pkt_size_system.l3.mem_side::system.mem_ctrls.port     75079360                       # Cumulative packet size per connected master and slave (bytes)
system.membus.pkt_size_system.l3.mem_side::total     75079360                       # Cumulative packet size per connected master and slave (bytes)
system.membus.pkt_size::total                75079360                       # Cumulative packet size per connected master and slave (bytes)
system.membus.snoops                                0                       # Total snoops (count)
system.membus.snoopTraffic                          0                       # Total snoop traffic (bytes)
system.membus.snoop_fanout::samples            776341                       # Request fanout histogram
system.membus.snoop_fanout::mean                    0                       # Request fanout histogram
system.membus.snoop_fanout::stdev                   0                       # Request fanout histogram
system.membus.snoop_fanout::underflows              0      0.00%      0.00% # Request fanout histogram
system.membus.snoop_fanout::0                  776341    100.00%    100.00% # Request fanout histogram
system.membus.snoop_fanout::1                       0      0.00%    100.00% # Request fanout histogram
system.membus.snoop_fanout::overflows               0      0.00%    100.00% # Request fanout histogram
system.membus.snoop_fanout::min_value               0                       # Request fanout histogram
system.membus.snoop_fanout::max_value               0                       # Request fanout histogram
system.membus.snoop_fanout::total              776341                       # Request fanout histogram
system.membus.reqLayer2.occupancy          3319504000                       # Layer occupancy (ticks)
system.membus.reqLayer2.utilization               1.5                       # Layer utilization (%)
system.membus.respLayer1.occupancy         4209556500                       # Layer occupancy (ticks)
system.membus.respLayer1.utilization              1.9                       # Layer utilization (%)
system.membus.power_state.pwrStateResidencyTicks::UNDEFINED 1365354437500                       # Cumulative time (in ticks) in various power states
system.switch_cpus_1.dtb.walker.power_state.pwrStateResidencyTicks::UNDEFINED 1365354437500                       # Cumulative time (in ticks) in various power states
system.switch_cpus_1.itb.walker.power_state.pwrStateResidencyTicks::UNDEFINED 1365354437500                       # Cumulative time (in ticks) in various power states
system.switch_cpus_1.power_state.pwrStateResidencyTicks::OFF 1365354437500                       # Cumulative time (in ticks) in various power states
system.switch_cpus.dtb.walker.power_state.pwrStateResidencyTicks::UNDEFINED 1365354437500                       # Cumulative time (in ticks) in various power states
system.switch_cpus.itb.walker.power_state.pwrStateResidencyTicks::UNDEFINED 1365354437500                       # Cumulative time (in ticks) in various power states
system.switch_cpus.power_state.numTransitions            1                       # Number of power state transitions
system.switch_cpus.power_state.pwrStateResidencyTicks::OFF 1365354437500                       # Cumulative time (in ticks) in various power states
system.tol2bus.trans_dist::ReadResp           3984531                       # Transaction distribution
system.tol2bus.trans_dist::WritebackDirty      2137714                       # Transaction distribution
system.tol2bus.trans_dist::WritebackClean          773                       # Transaction distribution
system.tol2bus.trans_dist::CleanEvict         5496512                       # Transaction distribution
system.tol2bus.trans_dist::UpgradeReq           29281                       # Transaction distribution
system.tol2bus.trans_dist::UpgradeResp          29281                       # Transaction distribution
system.tol2bus.trans_dist::ReadExReq           749845                       # Transaction distribution
system.tol2bus.trans_dist::ReadExResp          749845                       # Transaction distribution
system.tol2bus.trans_dist::ReadCleanReq           775                       # Transaction distribution
system.tol2bus.trans_dist::ReadSharedReq      3983757                       # Transaction distribution
system.tol2bus.pkt_count_system.cpu.icache.mem_side::system.l2.cpu_side         2321                       # Packet count per connected master and slave (bytes)
system.tol2bus.pkt_count_system.cpu.dcache.mem_side::system.l2.cpu_side     14259368                       # Packet count per connected master and slave (bytes)
system.tol2bus.pkt_count::total              14261689                       # Packet count per connected master and slave (bytes)
system.tol2bus.pkt_size_system.cpu.icache.mem_side::system.l2.cpu_side        98944                       # Cumulative packet size per connected master and slave (bytes)
system.tol2bus.pkt_size_system.cpu.dcache.mem_side::system.l2.cpu_side    382984192                       # Cumulative packet size per connected master and slave (bytes)
system.tol2bus.pkt_size::total              383083136                       # Cumulative packet size per connected master and slave (bytes)
system.tol2bus.snoops                         2900625                       # Total snoops (count)
system.tol2bus.snoopTraffic                  56780096                       # Total snoop traffic (bytes)
system.tol2bus.snoop_fanout::samples          7664282                       # Request fanout histogram
system.tol2bus.snoop_fanout::mean            0.000693                       # Request fanout histogram
system.tol2bus.snoop_fanout::stdev           0.026322                       # Request fanout histogram
system.tol2bus.snoop_fanout::underflows             0      0.00%      0.00% # Request fanout histogram
system.tol2bus.snoop_fanout::0                7658968     99.93%     99.93% # Request fanout histogram
system.tol2bus.snoop_fanout::1                   5314      0.07%    100.00% # Request fanout histogram
system.tol2bus.snoop_fanout::2                      0      0.00%    100.00% # Request fanout histogram
system.tol2bus.snoop_fanout::3                      0      0.00%    100.00% # Request fanout histogram
system.tol2bus.snoop_fanout::4                      0      0.00%    100.00% # Request fanout histogram
system.tol2bus.snoop_fanout::overflows              0      0.00%    100.00% # Request fanout histogram
system.tol2bus.snoop_fanout::min_value              0                       # Request fanout histogram
system.tol2bus.snoop_fanout::max_value              1                       # Request fanout histogram
system.tol2bus.snoop_fanout::total            7664282                       # Request fanout histogram
system.tol2bus.reqLayer0.occupancy         6000315500                       # Layer occupancy (ticks)
system.tol2bus.reqLayer0.utilization              2.8                       # Layer utilization (%)
system.tol2bus.respLayer1.occupancy        7115043500                       # Layer occupancy (ticks)
system.tol2bus.respLayer1.utilization             3.3                       # Layer utilization (%)
system.tol2bus.respLayer0.occupancy           1161499                       # Layer occupancy (ticks)
system.tol2bus.respLayer0.utilization             0.0                       # Layer utilization (%)
system.tol2bus.power_state.pwrStateResidencyTicks::UNDEFINED 1365354437500                       # Cumulative time (in ticks) in various power states
system.voltage_domain.voltage                       1                       # Voltage in Volts
system.clk_domain.clock                          1000                       # Clock period in ticks
system.l2.demand_hits::.switch_cpus_1.inst           71                       # number of demand (read+write) hits
system.l2.demand_hits::.switch_cpus_1.data      1845583                       # number of demand (read+write) hits
system.l2.demand_hits::total                  1845654                       # number of demand (read+write) hits
system.l2.overall_hits::.switch_cpus_1.inst           71                       # number of overall hits
system.l2.overall_hits::.switch_cpus_1.data      1845583                       # number of overall hits
system.l2.overall_hits::total                 1845654                       # number of overall hits
system.l2.demand_misses::.switch_cpus_1.inst          703                       # number of demand (read+write) misses
system.l2.demand_misses::.switch_cpus_1.data      2888019                       # number of demand (read+write) misses
system.l2.demand_misses::total                2888722                       # number of demand (read+write) misses
system.l2.overall_misses::.switch_cpus_1.inst          703                       # number of overall misses
system.l2.overall_misses::.switch_cpus_1.data      2888019                       # number of overall misses
system.l2.overall_misses::total               2888722                       # number of overall misses
system.l2.demand_miss_latency::.switch_cpus_1.inst     66481000                       # number of demand (read+write) miss cycles
system.l2.demand_miss_latency::.switch_cpus_1.data 122254641500                       # number of demand (read+write) miss cycles
system.l2.demand_miss_latency::total     122321122500                       # number of demand (read+write) miss cycles
system.l2.overall_miss_latency::.switch_cpus_1.inst     66481000                       # number of overall miss cycles
system.l2.overall_miss_latency::.switch_cpus_1.data 122254641500                       # number of overall miss cycles
system.l2.overall_miss_latency::total    122321122500                       # number of overall miss cycles
system.l2.demand_accesses::.switch_cpus_1.inst          774                       # number of demand (read+write) accesses
system.l2.demand_accesses::.switch_cpus_1.data      4733602                       # number of demand (read+write) accesses
system.l2.demand_accesses::total              4734376                       # number of demand (read+write) accesses
system.l2.overall_accesses::.switch_cpus_1.inst          774                       # number of overall (read+write) accesses
system.l2.overall_accesses::.switch_cpus_1.data      4733602                       # number of overall (read+write) accesses
system.l2.overall_accesses::total             4734376                       # number of overall (read+write) accesses
system.l2.demand_miss_rate::.switch_cpus_1.inst     0.908269                       # miss rate for demand accesses
system.l2.demand_miss_rate::.switch_cpus_1.data     0.610110                       # miss rate for demand accesses
[...]
system.cpu.dcache.overall_avg_miss_latency::.switch_cpus.data 26828.978883                       # average overall miss latency
system.cpu.dcache.overall_avg_miss_latency::.switch_cpus_1.data 35532.529465                       # average overall miss latency
system.cpu.dcache.overall_avg_miss_latency::total 12666.815949                       # average overall miss latency
system.cpu.dcache.blocked_cycles::no_mshrs      9250605                       # number of cycles access was blocked
system.cpu.dcache.blocked_cycles::no_targets        13209                       # number of cycles access was blocked
system.cpu.dcache.blocked::no_mshrs            737081                       # number of cycles access was blocked
system.cpu.dcache.blocked::no_targets              94                       # number of cycles access was blocked
system.cpu.dcache.avg_blocked_cycles::no_mshrs    12.550324                       # average number of cycles each access was blocked
system.cpu.dcache.avg_blocked_cycles::no_targets   140.521277                       # average number of cycles each access was blocked
system.cpu.dcache.writebacks::.writebacks      9260184                       # number of writebacks
system.cpu.dcache.writebacks::total           9260184                       # number of writebacks
system.cpu.dcache.demand_mshr_hits::.switch_cpus_1.data      1944945                       # number of demand (read+write) MSHR hits
system.cpu.dcache.demand_mshr_hits::total      1944945                       # number of demand (read+write) MSHR hits
system.cpu.dcache.overall_mshr_hits::.switch_cpus_1.data      1944945                       # number of overall MSHR hits
system.cpu.dcache.overall_mshr_hits::total      1944945                       # number of overall MSHR hits
system.cpu.dcache.demand_mshr_misses::.switch_cpus.data      1349003                       # number of demand (read+write) MSHR misses
system.cpu.dcache.demand_mshr_misses::.switch_cpus_1.data      4743083                       # number of demand (read+write) MSHR misses
system.cpu.dcache.demand_mshr_misses::total      6092086                       # number of demand (read+write) MSHR misses
system.cpu.dcache.overall_mshr_misses::.switch_cpus.data      1349003                       # number of overall MSHR misses
system.cpu.dcache.overall_mshr_misses::.switch_cpus_1.data      4762876                       # number of overall MSHR misses
system.cpu.dcache.overall_mshr_misses::total      6111879                       # number of overall MSHR misses
system.cpu.dcache.demand_mshr_miss_latency::.switch_cpus.data  35517871500                       # number of demand (read+write) MSHR miss cycles
system.cpu.dcache.demand_mshr_miss_latency::.switch_cpus_1.data 137532270507                       # number of demand (read+write) MSHR miss cycles
system.cpu.dcache.demand_mshr_miss_latency::total 173050142007                       # number of demand (read+write) MSHR miss cycles
system.cpu.dcache.overall_mshr_miss_latency::.switch_cpus.data  35517871500                       # number of overall MSHR miss cycles
system.cpu.dcache.overall_mshr_miss_latency::.switch_cpus_1.data 138089822007                       # number of overall MSHR miss cycles
system.cpu.dcache.overall_mshr_miss_latency::total 173607693507                       # number of overall MSHR miss cycles
system.cpu.dcache.demand_mshr_miss_rate::.switch_cpus.data     0.031837                       # mshr miss rate for demand accesses
system.cpu.dcache.demand_mshr_miss_rate::.switch_cpus_1.data     0.033366                       # mshr miss rate for demand accesses
system.cpu.dcache.demand_mshr_miss_rate::total     0.009863                       # mshr miss rate for demand accesses
system.cpu.dcache.overall_mshr_miss_rate::.switch_cpus.data     0.031837                       # mshr miss rate for overall accesses
system.cpu.dcache.overall_mshr_miss_rate::.switch_cpus_1.data     0.033373                       # mshr miss rate for overall accesses
system.cpu.dcache.overall_mshr_miss_rate::total     0.009883                       # mshr miss rate for overall accesses
system.cpu.dcache.demand_avg_mshr_miss_latency::.switch_cpus.data 26328.978883                       # average overall mshr miss latency
system.cpu.dcache.demand_avg_mshr_miss_latency::.switch_cpus_1.data 28996.387056                       # average overall mshr miss latency
system.cpu.dcache.demand_avg_mshr_miss_latency::total 28405.728679                       # average overall mshr miss latency
system.cpu.dcache.overall_avg_mshr_miss_latency::.switch_cpus.data 26328.978883                       # average overall mshr miss latency
system.cpu.dcache.overall_avg_mshr_miss_latency::.switch_cpus_1.data 28992.949220                       # average overall mshr miss latency
system.cpu.dcache.overall_avg_mshr_miss_latency::total 28404.962452                       # average overall mshr miss latency
system.cpu.dcache.replacements               19731532                       # number of replacements
system.cpu.dcache.ReadReq_hits::.cpu.data    310665092                       # number of ReadReq hits
system.cpu.dcache.ReadReq_hits::.switch_cpus.data     34188477                       # number of ReadReq hits
system.cpu.dcache.ReadReq_hits::.switch_cpus_1.data    105112020                       # number of ReadReq hits
system.cpu.dcache.ReadReq_hits::total       449965589                       # number of ReadReq hits
system.cpu.dcache.ReadReq_misses::.cpu.data     10557063                       # number of ReadReq misses
system.cpu.dcache.ReadReq_misses::.switch_cpus.data      1047513                       # number of ReadReq misses
system.cpu.dcache.ReadReq_misses::.switch_cpus_1.data      5908892                       # number of ReadReq misses
system.cpu.dcache.ReadReq_misses::total      17513468                       # number of ReadReq misses
system.cpu.dcache.ReadReq_miss_latency::.switch_cpus.data  22522590500                       # number of ReadReq miss cycles
system.cpu.dcache.ReadReq_miss_latency::.switch_cpus_1.data 202766207000                       # number of ReadReq miss cycles
system.cpu.dcache.ReadReq_miss_latency::total 225288797500                       # number of ReadReq miss cycles
system.cpu.dcache.ReadReq_accesses::.cpu.data    321222155                       # number of ReadReq accesses(hits+misses)
system.cpu.dcache.ReadReq_accesses::.switch_cpus.data     35235990                       # number of ReadReq accesses(hits+misses)
system.cpu.dcache.ReadReq_accesses::.switch_cpus_1.data    111020912                       # number of ReadReq accesses(hits+misses)
system.cpu.dcache.ReadReq_accesses::total    467479057                       # number of ReadReq accesses(hits+misses)
system.cpu.dcache.ReadReq_miss_rate::.cpu.data     0.032865                       # miss rate for ReadReq accesses
system.cpu.dcache.ReadReq_miss_rate::.switch_cpus.data     0.029728                       # miss rate for ReadReq accesses
system.cpu.dcache.ReadReq_miss_rate::.switch_cpus_1.data     0.053223                       # miss rate for ReadReq accesses
system.cpu.dcache.ReadReq_miss_rate::total     0.037464                       # miss rate for ReadReq accesses
system.cpu.dcache.ReadReq_avg_miss_latency::.switch_cpus.data 21501.012875                       # average ReadReq miss latency
system.cpu.dcache.ReadReq_avg_miss_latency::.switch_cpus_1.data 34315.436295                       # average ReadReq miss latency
system.cpu.dcache.ReadReq_avg_miss_latency::total 12863.745633                       # average ReadReq miss latency
system.cpu.dcache.ReadReq_mshr_hits::.switch_cpus_1.data      1944927                       # number of ReadReq MSHR hits
system.cpu.dcache.ReadReq_mshr_hits::total      1944927                       # number of ReadReq MSHR hits
system.cpu.dcache.ReadReq_mshr_misses::.switch_cpus.data      1047513                       # number of ReadReq MSHR misses
system.cpu.dcache.ReadReq_mshr_misses::.switch_cpus_1.data      3963965                       # number of ReadReq MSHR misses
system.cpu.dcache.ReadReq_mshr_misses::total      5011478                       # number of ReadReq MSHR misses
system.cpu.dcache.ReadReq_mshr_miss_latency::.switch_cpus.data  21998834000                       # number of ReadReq MSHR miss cycles
system.cpu.dcache.ReadReq_mshr_miss_latency::.switch_cpus_1.data 101466047500                       # number of ReadReq MSHR miss cycles
system.cpu.dcache.ReadReq_mshr_miss_latency::total 123464881500                       # number of ReadReq MSHR miss cycles
system.cpu.dcache.ReadReq_mshr_miss_rate::.switch_cpus.data     0.029728                       # mshr miss rate for ReadReq accesses
system.cpu.dcache.ReadReq_mshr_miss_rate::.switch_cpus_1.data     0.035705                       # mshr miss rate for ReadReq accesses
system.cpu.dcache.ReadReq_mshr_miss_rate::total     0.010720                       # mshr miss rate for ReadReq accesses
system.cpu.dcache.ReadReq_avg_mshr_miss_latency::.switch_cpus.data 21001.012875                       # average ReadReq mshr miss latency
system.cpu.dcache.ReadReq_avg_mshr_miss_latency::.switch_cpus_1.data 25597.109838                       # average ReadReq mshr miss latency
system.cpu.dcache.ReadReq_avg_mshr_miss_latency::total 24636.420932                       # average ReadReq mshr miss latency
system.cpu.dcache.WriteReq_hits::.cpu.data    108931366                       # number of WriteReq hits
system.cpu.dcache.WriteReq_hits::.switch_cpus.data      6834040                       # number of WriteReq hits
system.cpu.dcache.WriteReq_hits::.switch_cpus_1.data     30353870                       # number of WriteReq hits
system.cpu.dcache.WriteReq_hits::total      146119276                       # number of WriteReq hits
system.cpu.dcache.WriteReq_misses::.cpu.data      3022460                       # number of WriteReq misses
system.cpu.dcache.WriteReq_misses::.switch_cpus.data       301490                       # number of WriteReq misses
system.cpu.dcache.WriteReq_misses::.switch_cpus_1.data       779136                       # number of WriteReq misses
system.cpu.dcache.WriteReq_misses::total      4103086                       # number of WriteReq misses
system.cpu.dcache.WriteReq_miss_latency::.switch_cpus.data  13669782500                       # number of WriteReq miss cycles
system.cpu.dcache.WriteReq_miss_latency::.switch_cpus_1.data  36455872507                       # number of WriteReq miss cycles
system.cpu.dcache.WriteReq_miss_latency::total  50125655007                       # number of WriteReq miss cycles
system.cpu.dcache.WriteReq_accesses::.cpu.data    111953826                       # number of WriteReq accesses(hits+misses)
system.cpu.dcache.WriteReq_accesses::.switch_cpus.data      7135530                       # number of WriteReq accesses(hits+misses)
system.cpu.dcache.WriteReq_accesses::.switch_cpus_1.data     31133006                       # number of WriteReq accesses(hits+misses)
system.cpu.dcache.WriteReq_accesses::total    150222362                       # number of WriteReq accesses(hits+misses)
system.cpu.dcache.WriteReq_miss_rate::.cpu.data     0.026997                       # miss rate for WriteReq accesses
system.cpu.dcache.WriteReq_miss_rate::.switch_cpus.data     0.042252                       # miss rate for WriteReq accesses
system.cpu.dcache.WriteReq_miss_rate::.switch_cpus_1.data     0.025026                       # miss rate for WriteReq accesses
system.cpu.dcache.WriteReq_miss_rate::total     0.027313                       # miss rate for WriteReq accesses
system.cpu.dcache.WriteReq_avg_miss_latency::.switch_cpus.data 45340.749279                       # average WriteReq miss latency
system.cpu.dcache.WriteReq_avg_miss_latency::.switch_cpus_1.data 46790.127150                       # average WriteReq miss latency
system.cpu.dcache.WriteReq_avg_miss_latency::total 12216.574307                       # average WriteReq miss latency
system.cpu.dcache.WriteReq_mshr_hits::.switch_cpus_1.data           18                       # number of WriteReq MSHR hits
system.cpu.dcache.WriteReq_mshr_hits::total           18                       # number of WriteReq MSHR hits
system.cpu.dcache.WriteReq_mshr_misses::.switch_cpus.data       301490                       # number of WriteReq MSHR misses
system.cpu.dcache.WriteReq_mshr_misses::.switch_cpus_1.data       779118                       # number of WriteReq MSHR misses
system.cpu.dcache.WriteReq_mshr_misses::total      1080608                       # number of WriteReq MSHR misses
system.cpu.dcache.WriteReq_mshr_miss_latency::.switch_cpus.data  13519037500                       # number of WriteReq MSHR miss cycles
system.cpu.dcache.WriteReq_mshr_miss_latency::.switch_cpus_1.data  36066223007                       # number of WriteReq MSHR miss cycles
system.cpu.dcache.WriteReq_mshr_miss_latency::total  49585260507                       # number of WriteReq MSHR miss cycles
system.cpu.dcache.WriteReq_mshr_miss_rate::.switch_cpus.data     0.042252                       # mshr miss rate for WriteReq accesses
system.cpu.dcache.WriteReq_mshr_miss_rate::.switch_cpus_1.data     0.025025                       # mshr miss rate for WriteReq accesses
system.cpu.dcache.WriteReq_mshr_miss_rate::total     0.007193                       # mshr miss rate for WriteReq accesses
system.cpu.dcache.WriteReq_avg_mshr_miss_latency::.switch_cpus.data 44840.749279                       # average WriteReq mshr miss latency
system.cpu.dcache.WriteReq_avg_mshr_miss_latency::.switch_cpus_1.data 46291.091987                       # average WriteReq mshr miss latency
system.cpu.dcache.WriteReq_avg_mshr_miss_latency::total 45886.445878                       # average WriteReq mshr miss latency
system.cpu.dcache.SoftPFReq_hits::.cpu.data       103092                       # number of SoftPFReq hits
system.cpu.dcache.SoftPFReq_hits::.switch_cpus_1.data       519037                       # number of SoftPFReq hits
system.cpu.dcache.SoftPFReq_hits::total        622129                       # number of SoftPFReq hits
system.cpu.dcache.SoftPFReq_misses::.cpu.data        81983                       # number of SoftPFReq misses
system.cpu.dcache.SoftPFReq_misses::.switch_cpus_1.data        44453                       # number of SoftPFReq misses
system.cpu.dcache.SoftPFReq_misses::total       126436                       # number of SoftPFReq misses
system.cpu.dcache.SoftPFReq_accesses::.cpu.data       185075                       # number of SoftPFReq accesses(hits+misses)
system.cpu.dcache.SoftPFReq_accesses::.switch_cpus_1.data       563490                       # number of SoftPFReq accesses(hits+misses)
system.cpu.dcache.SoftPFReq_accesses::total       748565                       # number of SoftPFReq accesses(hits+misses)
system.cpu.dcache.SoftPFReq_miss_rate::.cpu.data     0.442972                       # miss rate for SoftPFReq accesses
system.cpu.dcache.SoftPFReq_miss_rate::.switch_cpus_1.data     0.078889                       # miss rate for SoftPFReq accesses
system.cpu.dcache.SoftPFReq_miss_rate::total     0.168905                       # miss rate for SoftPFReq accesses
system.cpu.dcache.SoftPFReq_mshr_misses::.switch_cpus_1.data        19793                       # number of SoftPFReq MSHR misses
system.cpu.dcache.SoftPFReq_mshr_misses::total        19793                       # number of SoftPFReq MSHR misses
system.cpu.dcache.SoftPFReq_mshr_miss_latency::.switch_cpus_1.data    557551500                       # number of SoftPFReq MSHR miss cycles
system.cpu.dcache.SoftPFReq_mshr_miss_latency::total    557551500                       # number of SoftPFReq MSHR miss cycles
system.cpu.dcache.SoftPFReq_mshr_miss_rate::.switch_cpus_1.data     0.035126                       # mshr miss rate for SoftPFReq accesses
system.cpu.dcache.SoftPFReq_mshr_miss_rate::total     0.026441                       # mshr miss rate for SoftPFReq accesses
system.cpu.dcache.SoftPFReq_avg_mshr_miss_latency::.switch_cpus_1.data 28169.125448                       # average SoftPFReq mshr miss latency
system.cpu.dcache.SoftPFReq_avg_mshr_miss_latency::total 28169.125448                       # average SoftPFReq mshr miss latency
system.cpu.dcache.power_state.pwrStateResidencyTicks::UNDEFINED 1365354437500                       # Cumulative time (in ticks) in various power states
system.cpu.dcache.tags.tagsinuse           511.996586                       # Cycle average of tags in use
system.cpu.dcache.tags.total_refs           616502243                       # Total number of references to valid blocks.
system.cpu.dcache.tags.sampled_refs          19732044                       # Sample count of references to valid blocks.
system.cpu.dcache.tags.avg_refs             31.243709                       # Average number of references to valid blocks.
system.cpu.dcache.tags.warmup_cycle              1500                       # Cycle when the warmup percentage was hit.
system.cpu.dcache.tags.occ_blocks::.cpu.data   384.203435                       # Average occupied blocks per requestor
system.cpu.dcache.tags.occ_blocks::.switch_cpus.data    46.412291                       # Average occupied blocks per requestor
system.cpu.dcache.tags.occ_blocks::.switch_cpus_1.data    81.380860                       # Average occupied blocks per requestor
system.cpu.dcache.tags.occ_percent::.cpu.data     0.750397                       # Average percentage of cache occupancy
system.cpu.dcache.tags.occ_percent::.switch_cpus.data     0.090649                       # Average percentage of cache occupancy
system.cpu.dcache.tags.occ_percent::.switch_cpus_1.data     0.158947                       # Average percentage of cache occupancy
system.cpu.dcache.tags.occ_percent::total     0.999993                       # Average percentage of cache occupancy
system.cpu.dcache.tags.occ_task_id_blocks::1024          512                       # Occupied blocks per task id
system.cpu.dcache.tags.age_task_id_blocks_1024::0          104                       # Occupied blocks per task id
system.cpu.dcache.tags.age_task_id_blocks_1024::1          408                       # Occupied blocks per task id
system.cpu.dcache.tags.occ_task_id_percent::1024            1                       # Percentage of cache occupancy per task id
system.cpu.dcache.tags.tag_accesses        2493531980                       # Number of tag accesses
system.cpu.dcache.tags.data_accesses       2493531980                       # Number of data accesses
system.cpu.dcache.tags.cache_friendly               0                       # Number of cache friendly accesses
system.cpu.dcache.tags.cache_averse         616502243                       # Number of cache averse accesses
system.cpu.dcache.tags.cache_friendly_victims            0                       # Number of cache friendly victims
system.cpu.dcache.tags.cache_averse_victims     19732044                       # Number of cache averse victims
system.cpu.dcache.tags.OPT_hits                     0                       # Number of OPT hits
system.cpu.dcache.tags.OPT_misses                   0                       # Number of OPT misses
system.cpu.dcache.tags.OPT_nan              618449984                       # Number of OPT nan
system.cpu.dcache.tags.power_state.pwrStateResidencyTicks::UNDEFINED 1365354437500                       # Cumulative time (in ticks) in various power states
system.cpu.power_state.numTransitions               2                       # Number of power state transitions
system.cpu.power_state.pwrStateResidencyTicks::ON 1024432831000                       # Cumulative time (in ticks) in various power states
system.cpu.power_state.pwrStateResidencyTicks::OFF 340921606500                       # Cumulative time (in ticks) in various power states

---------- End Simulation Statistics   ----------
