
---------- Begin Simulation Statistics ----------
final_tick                               1492579413500                       # Number of ticks from beginning of simulation (restored from checkpoints and never reset)
host_inst_rate                                 362643                       # Simulator instruction rate (inst/s)
host_mem_usage                                 874148                       # Number of bytes of host memory used
host_op_rate                                   614578                       # Simulator op (including micro ops) rate (op/s)
host_seconds                                  3860.09                       # Real time elapsed on the host
host_tick_rate                               79377969                       # Simulator tick rate (ticks/s)
sim_freq                                 1000000000000                       # Frequency of simulated ticks
sim_insts                                  1399837591                       # Number of instructions simulated
sim_ops                                    2372328828                       # Number of ops (including micro ops) simulated
sim_seconds                                  0.306406                       # Number of seconds simulated
sim_ticks                                306406398000                       # Number of ticks simulated
system.cpu.committedInsts                           0                       # Number of instructions committed
system.cpu.committedOps                             0                       # Number of ops (including micro ops) committed
system.cpu.dtb.rdAccesses                           0                       # TLB accesses on read requests
system.cpu.dtb.rdMisses                             0                       # TLB misses on read requests
system.cpu.dtb.wrAccesses                           0                       # TLB accesses on write requests
system.cpu.dtb.wrMisses                             0                       # TLB misses on write requests
system.cpu.idle_fraction                            0                       # Percentage of idle cycles
system.cpu.itb.rdAccesses                           0                       # TLB accesses on read requests
system.cpu.itb.rdMisses                             0                       # TLB misses on read requests
system.cpu.itb.wrAccesses                           0                       # TLB accesses on write requests
system.cpu.itb.wrMisses                             0                       # TLB misses on write requests
system.cpu.not_idle_fraction                        1                       # Percentage of non-idle cycles
system.cpu.numCycles                                0                       # number of cpu cycles simulated
system.cpu.numWorkItemsCompleted                    0                       # number of work items this cpu completed
system.cpu.numWorkItemsStarted                      0                       # number of work items this cpu started
system.cpu.num_busy_cycles                          0                       # Number of busy cycles
system.cpu.num_conditional_control_insts            0                       # number of instructions that are conditional controls
system.cpu.num_fp_alu_accesses                      0                       # Number of float alu accesses
system.cpu.num_fp_insts                             0                       # number of float instructions
system.cpu.num_fp_register_reads                    0                       # number of times the floating registers were read
system.cpu.num_fp_register_writes                   0                       # number of times the floating registers were written
system.cpu.num_func_calls                           0                       # number of times a function call or return occured
system.cpu.num_idle_cycles                          0                       # Number of idle cycles
system.cpu.num_int_alu_accesses                     0                       # Number of integer alu accesses
system.cpu.num_int_insts                            0                       # number of integer instructions
system.cpu.num_int_register_reads                   0                       # number of times the integer registers were read
system.cpu.num_int_register_writes                  0                       # number of times the integer registers were written
system.cpu.num_load_insts                           0                       # Number of load instructions
system.cpu.num_mem_refs                             0                       # number of memory refs
system.cpu.num_store_insts                          0                       # Number of store instructions
system.cpu.num_vec_alu_accesses                     0                       # Number of vector alu accesses
system.cpu.num_vec_insts                            0                       # number of vector instructions
system.cpu.num_vec_register_reads                   0                       # number of times the vector registers were read
system.cpu.num_vec_register_writes                  0                       # number of times the vector registers were written
system.cpu.op_class::No_OpClass                     0                       # Class of executed instruction
system.cpu.op_class::IntAlu                         0                       # Class of executed instruction
system.cpu.op_class::IntMult                        0                       # Class of executed instruction
system.cpu.op_class::IntDiv                         0                       # Class of executed instruction
system.cpu.op_class::FloatAdd                       0                       # Class of executed instruction
system.cpu.op_class::FloatCmp                       0                       # Class of executed instruction
system.cpu.op_class::FloatCvt                       0                       # Class of executed instruction
system.cpu.op_class::FloatMult                      0                       # Class of executed instruction
system.cpu.op_class::FloatMultAcc                   0                       # Class of executed instruction
system.cpu.op_class::FloatDiv                       0                       # Class of executed instruction
system.cpu.op_class::FloatMisc                      0                       # Class of executed instruction
system.cpu.op_class::FloatSqrt                      0                       # Class of executed instruction
system.cpu.op_class::SimdAdd                        0                       # Class of executed instruction
system.cpu.op_class::SimdAddAcc                     0                       # Class of executed instruction
system.cpu.op_class::SimdAlu                        0                       # Class of executed instruction
system.cpu.op_class::SimdCmp                        0                       # Class of executed instruction
system.cpu.op_class::SimdCvt                        0                       # Class of executed instruction
system.cpu.op_class::SimdMisc                       0                       # Class of executed instruction
system.cpu.op_class::SimdMult                       0                       # Class of executed instruction
system.cpu.op_class::SimdMultAcc                    0                       # Class of executed instruction
system.cpu.op_class::SimdShift                      0                       # Class of executed instruction
system.cpu.op_class::SimdShiftAcc                   0                       # Class of executed instruction
system.cpu.op_class::SimdDiv                        0                       # Class of executed instruction
system.cpu.op_class::SimdSqrt                       0                       # Class of executed instruction
system.cpu.op_class::SimdFloatAdd                   0                       # Class of executed instruction
system.cpu.op_class::SimdFloatAlu                   0                       # Class of executed instruction
system.cpu.op_class::SimdFloatCmp                   0                       # Class of executed instruction
system.cpu.op_class::SimdFloatCvt                   0                       # Class of executed instruction
system.cpu.op_class::SimdFloatDiv                   0                       # Class of executed instruction
system.cpu.op_class::SimdFloatMisc                  0                       # Class of executed instruction
system.cpu.op_class::SimdFloatMult                  0                       # Class of executed instruction
system.cpu.op_class::SimdFloatMultAcc               0                       # Class of executed instruction
system.cpu.op_class::SimdFloatSqrt                  0                       # Class of executed instruction
system.cpu.op_class::SimdReduceAdd                  0                       # Class of executed instruction
system.cpu.op_class::SimdReduceAlu                  0                       # Class of executed instruction
system.cpu.op_class::SimdReduceCmp                  0                       # Class of executed instruction
system.cpu.op_class::SimdFloatReduceAdd             0                       # Class of executed instruction
system.cpu.op_class::SimdFloatReduceCmp             0                       # Class of executed instruction
system.cpu.op_class::SimdAes                        0                       # Class of executed instruction
system.cpu.op_class::SimdAesMix                     0                       # Class of executed instruction
system.cpu.op_class::SimdSha1Hash                   0                       # Class of executed instruction
system.cpu.op_class::SimdSha1Hash2                  0                       # Class of executed instruction
system.cpu.op_class::SimdSha256Hash                 0                       # Class of executed instruction
system.cpu.op_class::SimdSha256Hash2                0                       # Class of executed instruction
system.cpu.op_class::SimdShaSigma2                  0                       # Class of executed instruction
system.cpu.op_class::SimdShaSigma3                  0                       # Class of executed instruction
system.cpu.op_class::SimdPredAlu                    0                       # Class of executed instruction
system.cpu.op_class::MemRead                        0                       # Class of executed instruction
system.cpu.op_class::MemWrite                       0                       # Class of executed instruction
system.cpu.op_class::FloatMemRead                   0                       # Class of executed instruction
system.cpu.op_class::FloatMemWrite                  0                       # Class of executed instruction
system.cpu.op_class::IprAccess                      0                       # Class of executed instruction
system.cpu.op_class::InstPrefetch                   0                       # Class of executed instruction
system.cpu.op_class::total                          0                       # Class of executed instruction
system.cpu.workload.numSyscalls                     6                       # Number of system calls
system.membus.snoop_filter.hit_multi_requests            0                       # Number of requests hitting in the snoop filter with multiple (>1) holders of the requested data.
system.membus.snoop_filter.hit_multi_snoops            0                       # Number of snoops hitting in the snoop filter with multiple (>1) holders of the requested data.
system.membus.snoop_filter.hit_single_requests      2759200                       # Number of requests hitting in the snoop filter with a single holder of the requested data.
system.membus.snoop_filter.hit_single_snoops            0                       # Number of snoops hitting in the snoop filter with a single holder of the requested data.
system.membus.snoop_filter.tot_requests       5518574                       # Total number of requests made to the snoop filter.
system.membus.snoop_filter.tot_snoops               0                       # Total number of snoops made to the snoop filter.
system.switch_cpus.committedInsts                   0                       # Number of instructions committed
system.switch_cpus.committedOps                     0                       # Number of ops (including micro ops) committed
system.switch_cpus.dtb.rdAccesses                   0                       # TLB accesses on read requests
system.switch_cpus.dtb.rdMisses                     0                       # TLB misses on read requests
system.switch_cpus.dtb.wrAccesses                   0                       # TLB accesses on write requests
system.switch_cpus.dtb.wrMisses                     0                       # TLB misses on write requests
system.switch_cpus.idle_fraction                    0                       # Percentage of idle cycles
system.switch_cpus.itb.rdAccesses                   0                       # TLB accesses on read requests
system.switch_cpus.itb.rdMisses                     0                       # TLB misses on read requests
system.switch_cpus.itb.wrAccesses                   0                       # TLB accesses on write requests
system.switch_cpus.itb.wrMisses                     0                       # TLB misses on write requests
system.switch_cpus.not_idle_fraction                1                       # Percentage of non-idle cycles
system.switch_cpus.numCycles                        0                       # number of cpu cycles simulated
system.switch_cpus.numWorkItemsCompleted            0                       # number of work items this cpu completed
system.switch_cpus.numWorkItemsStarted              0                       # number of work items this cpu started
system.switch_cpus.num_busy_cycles                  0                       # Number of busy cycles
system.switch_cpus.num_conditional_control_insts            0                       # number of instructions that are conditional controls
system.switch_cpus.num_fp_alu_accesses              0                       # Number of float alu accesses
system.switch_cpus.num_fp_insts                     0                       # number of float instructions
system.switch_cpus.num_fp_register_reads            0                       # number of times the floating registers were read
system.switch_cpus.num_fp_register_writes            0                       # number of times the floating registers were written
system.switch_cpus.num_func_calls                   0                       # number of times a function call or return occured
system.switch_cpus.num_idle_cycles                  0                       # Number of idle cycles
system.switch_cpus.num_int_alu_accesses             0                       # Number of integer alu accesses
system.switch_cpus.num_int_insts                    0                       # number of integer instructions
system.switch_cpus.num_int_register_reads            0                       # number of times the integer registers were read
system.switch_cpus.num_int_register_writes            0                       # number of times the integer registers were written
system.switch_cpus.num_load_insts                   0                       # Number of load instructions
system.switch_cpus.num_mem_refs                     0                       # number of memory refs
system.switch_cpus.num_store_insts                  0                       # Number of store instructions
system.switch_cpus.num_vec_alu_accesses             0                       # Number of vector alu accesses
system.switch_cpus.num_vec_insts                    0                       # number of vector instructions
system.switch_cpus.num_vec_register_reads            0                       # number of times the vector registers were read
system.switch_cpus.num_vec_register_writes            0                       # number of times the vector registers were written
system.switch_cpus.op_class::No_OpClass             0                       # Class of executed instruction
system.switch_cpus.op_class::IntAlu                 0                       # Class of executed instruction
system.switch_cpus.op_class::IntMult                0                       # Class of executed instruction
system.switch_cpus.op_class::IntDiv                 0                       # Class of executed instruction
system.switch_cpus.op_class::FloatAdd               0                       # Class of executed instruction
system.switch_cpus.op_class::FloatCmp               0                       # Class of executed instruction
system.switch_cpus.op_class::FloatCvt               0                       # Class of executed instruction
system.switch_cpus.op_class::FloatMult              0                       # Class of executed instruction
system.switch_cpus.op_class::FloatMultAcc            0                       # Class of executed instruction
system.switch_cpus.op_class::FloatDiv               0                       # Class of executed instruction
system.switch_cpus.op_class::FloatMisc              0                       # Class of executed instruction
system.switch_cpus.op_class::FloatSqrt              0                       # Class of executed instruction
system.switch_cpus.op_class::SimdAdd                0                       # Class of executed instruction
system.switch_cpus.op_class::SimdAddAcc             0                       # Class of executed instruction
system.switch_cpus.op_class::SimdAlu                0                       # Class of executed instruction
system.switch_cpus.op_class::SimdCmp                0                       # Class of executed instruction
system.switch_cpus.op_class::SimdCvt                0                       # Class of executed instruction
system.switch_cpus.op_class::SimdMisc               0                       # Class of executed instruction
system.switch_cpus.op_class::SimdMult               0                       # Class of executed instruction
system.switch_cpus.op_class::SimdMultAcc            0                       # Class of executed instruction
system.switch_cpus.op_class::SimdShift              0                       # Class of executed instruction
system.switch_cpus.op_class::SimdShiftAcc            0                       # Class of executed instruction
system.switch_cpus.op_class::SimdDiv                0                       # Class of executed instruction
system.switch_cpus.op_class::SimdSqrt               0                       # Class of executed instruction
system.switch_cpus.op_class::SimdFloatAdd            0                       # Class of executed instruction
system.switch_cpus.op_class::SimdFloatAlu            0                       # Class of executed instruction
system.switch_cpus.op_class::SimdFloatCmp            0                       # Class of executed instruction
system.switch_cpus.op_class::SimdFloatCvt            0                       # Class of executed instruction
system.switch_cpus.op_class::SimdFloatDiv            0                       # Class of executed instruction
system.switch_cpus.op_class::SimdFloatMisc            0                       # Class of executed instruction
system.switch_cpus.op_class::SimdFloatMult            0                       # Class of executed instruction
system.switch_cpus.op_class::SimdFloatMultAcc            0                       # Class of executed instruction
system.switch_cpus.op_class::SimdFloatSqrt            0                       # Class of executed instruction
system.switch_cpus.op_class::SimdReduceAdd            0                       # Class of executed instruction
system.switch_cpus.op_class::SimdReduceAlu            0                       # Class of executed instruction
system.switch_cpus.op_class::SimdReduceCmp            0                       # Class of executed instruction
system.switch_cpus.op_class::SimdFloatReduceAdd            0                       # Class of executed instruction
system.switch_cpus.op_class::SimdFloatReduceCmp            0                       # Class of executed instruction
system.switch_cpus.op_class::SimdAes                0                       # Class of executed instruction
system.switch_cpus.op_class::SimdAesMix             0                       # Class of executed instruction
system.switch_cpus.op_class::SimdSha1Hash            0                       # Class of executed instruction
system.switch_cpus.op_class::SimdSha1Hash2            0                       # Class of executed instruction
system.switch_cpus.op_class::SimdSha256Hash            0                       # Class of executed instruction
system.switch_cpus.op_class::SimdSha256Hash2            0                       # Class of executed instruction
system.switch_cpus.op_class::SimdShaSigma2            0                       # Class of executed instruction
system.switch_cpus.op_class::SimdShaSigma3            0                       # Class of executed instruction
system.switch_cpus.op_class::SimdPredAlu            0                       # Class of executed instruction
system.switch_cpus.op_class::MemRead                0                       # Class of executed instruction
system.switch_cpus.op_class::MemWrite               0                       # Class of executed instruction
system.switch_cpus.op_class::FloatMemRead            0                       # Class of executed instruction
system.switch_cpus.op_class::FloatMemWrite            0                       # Class of executed instruction
system.switch_cpus.op_class::IprAccess              0                       # Class of executed instruction
system.switch_cpus.op_class::InstPrefetch            0                       # Class of executed instruction
system.switch_cpus.op_class::total                  0                       # Class of executed instruction
system.switch_cpus_1.branchPred.BTBCorrect            0                       # Number of correct BTB predictions (this stat may not work properly.
system.switch_cpus_1.branchPred.BTBHitPct          nan                       # BTB Hit Percentage
system.switch_cpus_1.branchPred.BTBHits             0                       # Number of BTB hits
system.switch_cpus_1.branchPred.BTBLookups            0                       # Number of BTB lookups
system.switch_cpus_1.branchPred.RASInCorrect           23                       # Number of incorrect RAS predictions.
system.switch_cpus_1.branchPred.condIncorrect      8687455                       # Number of conditional branches incorrect
system.switch_cpus_1.branchPred.condPredicted    109644461                       # Number of conditional branches predicted
system.switch_cpus_1.branchPred.indirectHits     36033829                       # Number of indirect target hits.
system.switch_cpus_1.branchPred.indirectLookups     61186451                       # Number of indirect predictor lookups.
system.switch_cpus_1.branchPred.indirectMisses     25152622                       # Number of indirect misses.
system.switch_cpus_1.branchPred.lookups     116391643                       # Number of BP lookups
system.switch_cpus_1.branchPred.usedRAS       2177130                       # Number of times the RAS was used to get a target.
system.switch_cpus_1.branchPredindirectMispredicted      4722647                       # Number of mispredicted indirect branches.
system.switch_cpus_1.cc_regfile_reads       308673498                       # number of cc regfile reads
system.switch_cpus_1.cc_regfile_writes      281159170                       # number of cc regfile writes
system.switch_cpus_1.commit.amos                    0                       # Number of atomic instructions committed
system.switch_cpus_1.commit.branchMispredicts      8687857                       # The number of times a branch was mispredicted
system.switch_cpus_1.commit.branches         48408961                       # Number of branches committed
system.switch_cpus_1.commit.bw_lim_events     30222840                       # number cycles where commit BW limit reached
system.switch_cpus_1.commit.commitNonSpecStalls            6                       # The number of times commit has been forced to stall to communicate backwards
system.switch_cpus_1.commit.commitSquashedInsts    370477206                       # The number of squashed insts skipped by commit
system.switch_cpus_1.commit.committedInsts    299837589                       # Number of instructions committed
system.switch_cpus_1.commit.committedOps    507028539                       # Number of ops (including micro ops) committed
system.switch_cpus_1.commit.committed_per_cycle::samples    558612426                       # Number of insts commited each cycle
system.switch_cpus_1.commit.committed_per_cycle::mean     0.907657                       # Number of insts commited each cycle
system.switch_cpus_1.commit.committed_per_cycle::stdev     2.051829                       # Number of insts commited each cycle
system.switch_cpus_1.commit.committed_per_cycle::underflows            0      0.00%      0.00% # Number of insts commited each cycle
system.switch_cpus_1.commit.committed_per_cycle::0    410585869     73.50%     73.50% # Number of insts commited each cycle
system.switch_cpus_1.commit.committed_per_cycle::1     55097549      9.86%     83.36% # Number of insts commited each cycle
system.switch_cpus_1.commit.committed_per_cycle::2     19589319      3.51%     86.87% # Number of insts commited each cycle
system.switch_cpus_1.commit.committed_per_cycle::3     21719748      3.89%     90.76% # Number of insts commited each cycle
system.switch_cpus_1.commit.committed_per_cycle::4     10393489      1.86%     92.62% # Number of insts commited each cycle
system.switch_cpus_1.commit.committed_per_cycle::5      4778303      0.86%     93.48% # Number of insts commited each cycle
system.switch_cpus_1.commit.committed_per_cycle::6      3232246      0.58%     94.05% # Number of insts commited each cycle
system.switch_cpus_1.commit.committed_per_cycle::7      2993063      0.54%     94.59% # Number of insts commited each cycle
system.switch_cpus_1.commit.committed_per_cycle::8     30222840      5.41%    100.00% # Number of insts commited each cycle
system.switch_cpus_1.commit.committed_per_cycle::overflows            0      0.00%    100.00% # Number of insts commited each cycle
system.switch_cpus_1.commit.committed_per_cycle::min_value            0                       # Number of insts commited each cycle
system.switch_cpus_1.commit.committed_per_cycle::max_value            8                       # Number of insts commited each cycle
system.switch_cpus_1.commit.committed_per_cycle::total    558612426                       # Number of insts commited each cycle
system.switch_cpus_1.commit.fp_insts           157352                       # Number of committed floating point instructions.
system.switch_cpus_1.commit.function_calls      1210508                       # Number of function calls committed.
system.switch_cpus_1.commit.int_insts       506322258                       # Number of committed integer instructions.
system.switch_cpus_1.commit.loads            86983131                       # Number of loads committed
system.switch_cpus_1.commit.membars                 0                       # Number of memory barriers committed
system.switch_cpus_1.commit.op_class_0::No_OpClass       705722      0.14%      0.14% # Class of committed instruction
system.switch_cpus_1.commit.op_class_0::IntAlu    388389030     76.60%     76.74% # Class of committed instruction
system.switch_cpus_1.commit.op_class_0::IntMult          343      0.00%     76.74% # Class of committed instruction
system.switch_cpus_1.commit.op_class_0::IntDiv          153      0.00%     76.74% # Class of committed instruction
system.switch_cpus_1.commit.op_class_0::FloatAdd            8      0.00%     76.74% # Class of committed instruction
system.switch_cpus_1.commit.op_class_0::FloatCmp            0      0.00%     76.74% # Class of committed instruction
system.switch_cpus_1.commit.op_class_0::FloatCvt            0      0.00%     76.74% # Class of committed instruction
system.switch_cpus_1.commit.op_class_0::FloatMult            0      0.00%     76.74% # Class of committed instruction
system.switch_cpus_1.commit.op_class_0::FloatMultAcc            0      0.00%     76.74% # Class of committed instruction
system.switch_cpus_1.commit.op_class_0::FloatDiv            0      0.00%     76.74% # Class of committed instruction
system.switch_cpus_1.commit.op_class_0::FloatMisc            0      0.00%     76.74% # Class of committed instruction
system.switch_cpus_1.commit.op_class_0::FloatSqrt            0      0.00%     76.74% # Class of committed instruction
system.switch_cpus_1.commit.op_class_0::SimdAdd            0      0.00%     76.74% # Class of committed instruction
system.switch_cpus_1.commit.op_class_0::SimdAddAcc            0      0.00%     76.74% # Class of committed instruction
system.switch_cpus_1.commit.op_class_0::SimdAlu           32      0.00%     76.74% # Class of committed instruction
system.switch_cpus_1.commit.op_class_0::SimdCmp            0      0.00%     76.74% # Class of committed instruction
system.switch_cpus_1.commit.op_class_0::SimdCvt           56      0.00%     76.74% # Class of committed instruction
system.switch_cpus_1.commit.op_class_0::SimdMisc          112      0.00%     76.74% # Class of committed instruction
system.switch_cpus_1.commit.op_class_0::SimdMult            0      0.00%     76.74% # Class of committed instruction
system.switch_cpus_1.commit.op_class_0::SimdMultAcc            0      0.00%     76.74% # Class of committed instruction
system.switch_cpus_1.commit.op_class_0::SimdShift            0      0.00%     76.74% # Class of committed instruction
system.switch_cpus_1.commit.op_class_0::SimdShiftAcc            0      0.00%     76.74% # Class of committed instruction
system.switch_cpus_1.commit.op_class_0::SimdDiv            0      0.00%     76.74% # Class of committed instruction
system.switch_cpus_1.commit.op_class_0::SimdSqrt            0      0.00%     76.74% # Class of committed instruction
system.switch_cpus_1.commit.op_class_0::SimdFloatAdd            0      0.00%     76.74% # Class of committed instruction
system.switch_cpus_1.commit.op_class_0::SimdFloatAlu            0      0.00%     76.74% # Class of committed instruction
system.switch_cpus_1.commit.op_class_0::SimdFloatCmp            0      0.00%     76.74% # Class of committed instruction
system.switch_cpus_1.commit.op_class_0::SimdFloatCvt            0      0.00%     76.74% # Class of committed instruction
system.switch_cpus_1.commit.op_class_0::SimdFloatDiv            0      0.00%     76.74% # Class of committed instruction
system.switch_cpus_1.commit.op_class_0::SimdFloatMisc            0      0.00%     76.74% # Class of committed instruction
system.switch_cpus_1.commit.op_class_0::SimdFloatMult            0      0.00%     76.74% # Class of committed instruction
system.switch_cpus_1.commit.op_class_0::SimdFloatMultAcc            0      0.00%     76.74% # Class of committed instruction
system.switch_cpus_1.commit.op_class_0::SimdFloatSqrt            0      0.00%     76.74% # Class of committed instruction
system.switch_cpus_1.commit.op_class_0::SimdReduceAdd            0      0.00%     76.74% # Class of committed instruction
system.switch_cpus_1.commit.op_class_0::SimdReduceAlu            0      0.00%     76.74% # Class of committed instruction
system.switch_cpus_1.commit.op_class_0::SimdReduceCmp            0      0.00%     76.74% # Class of committed instruction
system.switch_cpus_1.commit.op_class_0::SimdFloatReduceAdd            0      0.00%     76.74% # Class of committed instruction
system.switch_cpus_1.commit.op_class_0::SimdFloatReduceCmp            0      0.00%     76.74% # Class of committed instruction
system.switch_cpus_1.commit.op_class_0::SimdAes            0      0.00%     76.74% # Class of committed instruction
system.switch_cpus_1.commit.op_class_0::SimdAesMix            0      0.00%     76.74% # Class of committed instruction
system.switch_cpus_1.commit.op_class_0::SimdSha1Hash            0      0.00%     76.74% # Class of committed instruction
system.switch_cpus_1.commit.op_class_0::SimdSha1Hash2            0      0.00%     76.74% # Class of committed instruction
system.switch_cpus_1.commit.op_class_0::SimdSha256Hash            0      0.00%     76.74% # Class of committed instruction
system.switch_cpus_1.commit.op_class_0::SimdSha256Hash2            0      0.00%     76.74% # Class of committed instruction
system.switch_cpus_1.commit.op_class_0::SimdShaSigma2            0      0.00%     76.74% # Class of committed instruction
system.switch_cpus_1.commit.op_class_0::SimdShaSigma3            0      0.00%     76.74% # Class of committed instruction
system.switch_cpus_1.commit.op_class_0::SimdPredAlu            0      0.00%     76.74% # Class of committed instruction
system.switch_cpus_1.commit.op_class_0::MemRead     86983097     17.16%     93.90% # Class of committed instruction
system.switch_cpus_1.commit.op_class_0::MemWrite     30792872      6.07%     99.97% # Class of committed instruction
system.switch_cpus_1.commit.op_class_0::FloatMemRead           34      0.00%     99.97% # Class of committed instruction
system.switch_cpus_1.commit.op_class_0::FloatMemWrite       157080      0.03%    100.00% # Class of committed instruction
system.switch_cpus_1.commit.op_class_0::IprAccess            0      0.00%    100.00% # Class of committed instruction
system.switch_cpus_1.commit.op_class_0::InstPrefetch            0      0.00%    100.00% # Class of committed instruction
system.switch_cpus_1.commit.op_class_0::total    507028539                       # Class of committed instruction
system.switch_cpus_1.commit.refs            117933083                       # Number of memory references committed
system.switch_cpus_1.commit.swp_count               0                       # Number of s/w prefetches committed
system.switch_cpus_1.commit.vec_insts               0                       # Number of committed Vector instructions.
system.switch_cpus_1.committedInsts         299837589                       # Number of Instructions Simulated
system.switch_cpus_1.committedOps           507028539                       # Number of Ops (including micro ops) Simulated
system.switch_cpus_1.cpi                     2.043816                       # CPI: Cycles Per Instruction
system.switch_cpus_1.cpi_total               2.043816                       # CPI: Total CPI of All Threads
system.switch_cpus_1.decode.BlockedCycles    434753369                       # Number of cycles decode is blocked
system.switch_cpus_1.decode.DecodedInsts   1040039716                       # Number of instructions handled by decode
system.switch_cpus_1.decode.IdleCycles       31348538                       # Number of cycles decode is idle
system.switch_cpus_1.decode.RunCycles       103243545                       # Number of cycles decode is running
system.switch_cpus_1.decode.SquashCycles      8716409                       # Number of cycles decode is squashing
system.switch_cpus_1.decode.UnblockCycles     34709117                       # Number of cycles decode is unblocking
system.switch_cpus_1.dtb.rdAccesses         120922936                       # TLB accesses on read requests
system.switch_cpus_1.dtb.rdMisses             1709948                       # TLB misses on read requests
system.switch_cpus_1.dtb.wrAccesses          39748693                       # TLB accesses on write requests
system.switch_cpus_1.dtb.wrMisses              430727                       # TLB misses on write requests
system.switch_cpus_1.fetch.Branches         116391643                       # Number of branches that fetch encountered
system.switch_cpus_1.fetch.CacheLines        75566159                       # Number of cache lines fetched
system.switch_cpus_1.fetch.Cycles           596382625                       # Number of cycles fetch has run and was not squashing or blocked
system.switch_cpus_1.fetch.IcacheSquashes          881                       # Number of outstanding Icache misses that were squashed
system.switch_cpus_1.fetch.IcacheWaitRetryStallCycles           85                       # Number of stall cycles due to full MSHR
system.switch_cpus_1.fetch.Insts            726074390                       # Number of instructions fetch has processed
system.switch_cpus_1.fetch.MiscStallCycles          416                       # Number of cycles fetch has spent waiting on interrupts, or bad addresses, or out of MSHRs
system.switch_cpus_1.fetch.PendingTrapStallCycles         6387                       # Number of stall cycles due to pending traps
system.switch_cpus_1.fetch.SquashCycles      17432818                       # Number of cycles fetch has spent squashing
system.switch_cpus_1.fetch.branchRate        0.189930                       # Number of branch fetches per cycle
system.switch_cpus_1.fetch.icacheStallCycles      7665079                       # Number of cycles fetch is stalled on an Icache miss
system.switch_cpus_1.fetch.predictedBranches     38210959                       # Number of branches that fetch has predicted taken
system.switch_cpus_1.fetch.rate              1.184823                       # Number of inst fetches per cycle
system.switch_cpus_1.fetch.rateDist::samples    612771001                       # Number of instructions fetched each cycle (Total)
system.switch_cpus_1.fetch.rateDist::mean     1.967899                       # Number of instructions fetched each cycle (Total)
system.switch_cpus_1.fetch.rateDist::stdev     3.195350                       # Number of instructions fetched each cycle (Total)
system.switch_cpus_1.fetch.rateDist::underflows            0      0.00%      0.00% # Number of instructions fetched each cycle (Total)
system.switch_cpus_1.fetch.rateDist::0      419477773     68.46%     68.46% # Number of instructions fetched each cycle (Total)
system.switch_cpus_1.fetch.rateDist::1       11076570      1.81%     70.26% # Number of instructions fetched each cycle (Total)
system.switch_cpus_1.fetch.rateDist::2       14720967      2.40%     72.67% # Number of instructions fetched each cycle (Total)
system.switch_cpus_1.fetch.rateDist::3       11240559      1.83%     74.50% # Number of instructions fetched each cycle (Total)
system.switch_cpus_1.fetch.rateDist::4        9475264      1.55%     76.05% # Number of instructions fetched each cycle (Total)
system.switch_cpus_1.fetch.rateDist::5       16579448      2.71%     78.75% # Number of instructions fetched each cycle (Total)
system.switch_cpus_1.fetch.rateDist::6       10549837      1.72%     80.47% # Number of instructions fetched each cycle (Total)
system.switch_cpus_1.fetch.rateDist::7        9670733      1.58%     82.05% # Number of instructions fetched each cycle (Total)
system.switch_cpus_1.fetch.rateDist::8      109979850     17.95%    100.00% # Number of instructions fetched each cycle (Total)
system.switch_cpus_1.fetch.rateDist::overflows            0      0.00%    100.00% # Number of instructions fetched each cycle (Total)
system.switch_cpus_1.fetch.rateDist::min_value            0                       # Number of instructions fetched each cycle (Total)
system.switch_cpus_1.fetch.rateDist::max_value            8                       # Number of instructions fetched each cycle (Total)
system.switch_cpus_1.fetch.rateDist::total    612771001                       # Number of instructions fetched each cycle (Total)
system.switch_cpus_1.fp_regfile_reads          272639                       # number of floating regfile reads
system.switch_cpus_1.fp_regfile_writes          75305                       # number of floating regfile writes
system.switch_cpus_1.idleCycles                 41795                       # Total number of cycles that the CPU has spent unscheduled due to idling
system.switch_cpus_1.iew.branchMispredicts     10683146                       # Number of branch mispredicts detected at execute
system.switch_cpus_1.iew.exec_branches       62509116                       # Number of branches executed
system.switch_cpus_1.iew.exec_nop                   0                       # number of nop insts executed
system.switch_cpus_1.iew.exec_rate           1.179836                       # Inst execution rate
system.switch_cpus_1.iew.exec_refs          163479364                       # number of memory reference insts executed
system.switch_cpus_1.iew.exec_stores         39742371                       # Number of stores executed
system.switch_cpus_1.iew.exec_swp                   0                       # number of swp insts executed
system.switch_cpus_1.iew.iewBlockCycles     197347195                       # Number of cycles IEW is blocking
system.switch_cpus_1.iew.iewDispLoadInsts    152512997                       # Number of dispatched load instructions
system.switch_cpus_1.iew.iewDispNonSpecInsts           73                       # Number of dispatched non-speculative instructions
system.switch_cpus_1.iew.iewDispSquashedInsts       103830                       # Number of squashed instructions skipped by dispatch
system.switch_cpus_1.iew.iewDispStoreInsts     59317120                       # Number of dispatched store instructions
system.switch_cpus_1.iew.iewDispatchedInsts    877435030                       # Number of instructions dispatched to IQ
system.switch_cpus_1.iew.iewExecLoadInsts    123736993                       # Number of load instructions executed
system.switch_cpus_1.iew.iewExecSquashedInsts     23375200                       # Number of squashed instructions skipped in execute
system.switch_cpus_1.iew.iewExecutedInsts    723018592                       # Number of executed instructions
system.switch_cpus_1.iew.iewIQFullEvents       806470                       # Number of times the IQ has become full, causing a stall
system.switch_cpus_1.iew.iewIdleCycles              0                       # Number of cycles IEW is idle
system.switch_cpus_1.iew.iewLSQFullEvents     39133916                       # Number of times the LSQ has become full, causing a stall
system.switch_cpus_1.iew.iewSquashCycles      8716409                       # Number of cycles IEW is squashing
system.switch_cpus_1.iew.iewUnblockCycles     40641679                       # Number of cycles IEW is unblocking
system.switch_cpus_1.iew.lsq.thread0.blockedLoads            0                       # Number of blocked loads due to partial load-store forwarding
system.switch_cpus_1.iew.lsq.thread0.cacheBlocked       811536                       # Number of times an access to memory failed due to the cache being blocked
system.switch_cpus_1.iew.lsq.thread0.forwLoads     12532540                       # Number of loads that had data forwarded from stores
system.switch_cpus_1.iew.lsq.thread0.ignoredResponses        40867                       # Number of memory responses ignored because the instruction is squashed
system.switch_cpus_1.iew.lsq.thread0.invAddrLoads            0                       # Number of loads ignored due to an invalid address
system.switch_cpus_1.iew.lsq.thread0.invAddrSwpfs            0                       # Number of software prefetches ignored due to an invalid address
system.switch_cpus_1.iew.lsq.thread0.memOrderViolation        39708                       # Number of memory ordering violations
system.switch_cpus_1.iew.lsq.thread0.rescheduledLoads        14980                       # Number of loads that were rescheduled
system.switch_cpus_1.iew.lsq.thread0.squashedLoads     65529866                       # Number of loads squashed
system.switch_cpus_1.iew.lsq.thread0.squashedStores     28367168                       # Number of stores squashed
system.switch_cpus_1.iew.memOrderViolationEvents        39708                       # Number of memory order violations
system.switch_cpus_1.iew.predictedNotTakenIncorrect      9516675                       # Number of branches that were predicted not taken incorrectly
system.switch_cpus_1.iew.predictedTakenIncorrect      1166471                       # Number of branches that were predicted taken incorrectly
system.switch_cpus_1.iew.wb_consumers       842953010                       # num instructions consuming a value
system.switch_cpus_1.iew.wb_count           709136437                       # cumulative count of insts written-back
system.switch_cpus_1.iew.wb_fanout           0.653587                       # average fanout of values written-back
system.switch_cpus_1.iew.wb_producers       550942847                       # num instructions producing a value
system.switch_cpus_1.iew.wb_rate             1.157183                       # insts written-back per cycle
system.switch_cpus_1.iew.wb_sent            716459088                       # cumulative count of insts sent to commit
system.switch_cpus_1.int_regfile_reads     1094859118                       # number of integer regfile reads
system.switch_cpus_1.int_regfile_writes     611218375                       # number of integer regfile writes
system.switch_cpus_1.ipc                     0.489281                       # IPC: Instructions Per Cycle
system.switch_cpus_1.ipc_total               0.489281                       # IPC: Total IPC of All Threads
system.switch_cpus_1.iq.FU_type_0::No_OpClass      2887885      0.39%      0.39% # Type of FU issued
system.switch_cpus_1.iq.FU_type_0::IntAlu    570909807     76.49%     76.88% # Type of FU issued
system.switch_cpus_1.iq.FU_type_0::IntMult          357      0.00%     76.88% # Type of FU issued
system.switch_cpus_1.iq.FU_type_0::IntDiv          155      0.00%     76.88% # Type of FU issued
system.switch_cpus_1.iq.FU_type_0::FloatAdd           13      0.00%     76.88% # Type of FU issued
system.switch_cpus_1.iq.FU_type_0::FloatCmp            0      0.00%     76.88% # Type of FU issued
system.switch_cpus_1.iq.FU_type_0::FloatCvt         3502      0.00%     76.88% # Type of FU issued
system.switch_cpus_1.iq.FU_type_0::FloatMult            0      0.00%     76.88% # Type of FU issued
system.switch_cpus_1.iq.FU_type_0::FloatMultAcc            0      0.00%     76.88% # Type of FU issued
system.switch_cpus_1.iq.FU_type_0::FloatDiv            0      0.00%     76.88% # Type of FU issued
system.switch_cpus_1.iq.FU_type_0::FloatMisc            0      0.00%     76.88% # Type of FU issued
system.switch_cpus_1.iq.FU_type_0::FloatSqrt            0      0.00%     76.88% # Type of FU issued
system.switch_cpus_1.iq.FU_type_0::SimdAdd            0      0.00%     76.88% # Type of FU issued
system.switch_cpus_1.iq.FU_type_0::SimdAddAcc            0      0.00%     76.88% # Type of FU issued
system.switch_cpus_1.iq.FU_type_0::SimdAlu           44      0.00%     76.88% # Type of FU issued
system.switch_cpus_1.iq.FU_type_0::SimdCmp            0      0.00%     76.88% # Type of FU issued
system.switch_cpus_1.iq.FU_type_0::SimdCvt           66      0.00%     76.88% # Type of FU issued
system.switch_cpus_1.iq.FU_type_0::SimdMisc       103450      0.01%     76.89% # Type of FU issued
system.switch_cpus_1.iq.FU_type_0::SimdMult            0      0.00%     76.89% # Type of FU issued
system.switch_cpus_1.iq.FU_type_0::SimdMultAcc            0      0.00%     76.89% # Type of FU issued
system.switch_cpus_1.iq.FU_type_0::SimdShift            0      0.00%     76.89% # Type of FU issued
system.switch_cpus_1.iq.FU_type_0::SimdShiftAcc            0      0.00%     76.89% # Type of FU issued
system.switch_cpus_1.iq.FU_type_0::SimdDiv            0      0.00%     76.89% # Type of FU issued
system.switch_cpus_1.iq.FU_type_0::SimdSqrt            0      0.00%     76.89% # Type of FU issued
system.switch_cpus_1.iq.FU_type_0::SimdFloatAdd            0      0.00%     76.89% # Type of FU issued
system.switch_cpus_1.iq.FU_type_0::SimdFloatAlu            0      0.00%     76.89% # Type of FU issued
system.switch_cpus_1.iq.FU_type_0::SimdFloatCmp            0      0.00%     76.89% # Type of FU issued
system.switch_cpus_1.iq.FU_type_0::SimdFloatCvt        36911      0.00%     76.90% # Type of FU issued
system.switch_cpus_1.iq.FU_type_0::SimdFloatDiv            0      0.00%     76.90% # Type of FU issued
system.switch_cpus_1.iq.FU_type_0::SimdFloatMisc            0      0.00%     76.90% # Type of FU issued
system.switch_cpus_1.iq.FU_type_0::SimdFloatMult            0      0.00%     76.90% # Type of FU issued
system.switch_cpus_1.iq.FU_type_0::SimdFloatMultAcc            0      0.00%     76.90% # Type of FU issued
system.switch_cpus_1.iq.FU_type_0::SimdFloatSqrt            0      0.00%     76.90% # Type of FU issued
system.switch_cpus_1.iq.FU_type_0::SimdReduceAdd            0      0.00%     76.90% # Type of FU issued
system.switch_cpus_1.iq.FU_type_0::SimdReduceAlu            0      0.00%     76.90% # Type of FU issued
system.switch_cpus_1.iq.FU_type_0::SimdReduceCmp            0      0.00%     76.90% # Type of FU issued
system.switch_cpus_1.iq.FU_type_0::SimdFloatReduceAdd            0      0.00%     76.90% # Type of FU issued
system.switch_cpus_1.iq.FU_type_0::SimdFloatReduceCmp            0      0.00%     76.90% # Type of FU issued
system.switch_cpus_1.iq.FU_type_0::SimdAes            0      0.00%     76.90% # Type of FU issued
system.switch_cpus_1.iq.FU_type_0::SimdAesMix            0      0.00%     76.90% # Type of FU issued
system.switch_cpus_1.iq.FU_type_0::SimdSha1Hash            0      0.00%     76.90% # Type of FU issued
system.switch_cpus_1.iq.FU_type_0::SimdSha1Hash2            0      0.00%     76.90% # Type of FU issued
system.switch_cpus_1.iq.FU_type_0::SimdSha256Hash            0      0.00%     76.90% # Type of FU issued
system.switch_cpus_1.iq.FU_type_0::SimdSha256Hash2            0      0.00%     76.90% # Type of FU issued
system.switch_cpus_1.iq.FU_type_0::SimdShaSigma2            0      0.00%     76.90% # Type of FU issued
system.switch_cpus_1.iq.FU_type_0::SimdShaSigma3            0      0.00%     76.90% # Type of FU issued
system.switch_cpus_1.iq.FU_type_0::SimdPredAlu            0      0.00%     76.90% # Type of FU issued
system.switch_cpus_1.iq.FU_type_0::MemRead    130216620     17.45%     94.34% # Type of FU issued
system.switch_cpus_1.iq.FU_type_0::MemWrite     42077566      5.64%     99.98% # Type of FU issued
system.switch_cpus_1.iq.FU_type_0::FloatMemRead           73      0.00%     99.98% # Type of FU issued
system.switch_cpus_1.iq.FU_type_0::FloatMemWrite       157343      0.02%    100.00% # Type of FU issued
system.switch_cpus_1.iq.FU_type_0::IprAccess            0      0.00%    100.00% # Type of FU issued
system.switch_cpus_1.iq.FU_type_0::InstPrefetch            0      0.00%    100.00% # Type of FU issued
system.switch_cpus_1.iq.FU_type_0::total    746393792                       # Type of FU issued
system.switch_cpus_1.iq.fp_alu_accesses        301543                       # Number of floating point alu accesses
system.switch_cpus_1.iq.fp_inst_queue_reads       603527                       # Number of floating instruction queue reads
system.switch_cpus_1.iq.fp_inst_queue_wakeup_accesses       235769                       # Number of floating instruction queue wakeup accesses
system.switch_cpus_1.iq.fp_inst_queue_writes      1077968                       # Number of floating instruction queue writes
system.switch_cpus_1.iq.fu_busy_cnt          15244801                       # FU busy when requested
system.switch_cpus_1.iq.fu_busy_rate         0.020425                       # FU busy rate (busy events/executed inst)
system.switch_cpus_1.iq.fu_full::No_OpClass            0      0.00%      0.00% # attempts to use FU when none available
system.switch_cpus_1.iq.fu_full::IntAlu      13057639     85.65%     85.65% # attempts to use FU when none available
system.switch_cpus_1.iq.fu_full::IntMult            0      0.00%     85.65% # attempts to use FU when none available
system.switch_cpus_1.iq.fu_full::IntDiv             0      0.00%     85.65% # attempts to use FU when none available
system.switch_cpus_1.iq.fu_full::FloatAdd            0      0.00%     85.65% # attempts to use FU when none available
system.switch_cpus_1.iq.fu_full::FloatCmp            0      0.00%     85.65% # attempts to use FU when none available
system.switch_cpus_1.iq.fu_full::FloatCvt           18      0.00%     85.65% # attempts to use FU when none available
system.switch_cpus_1.iq.fu_full::FloatMult            0      0.00%     85.65% # attempts to use FU when none available
system.switch_cpus_1.iq.fu_full::FloatMultAcc            0      0.00%     85.65% # attempts to use FU when none available
system.switch_cpus_1.iq.fu_full::FloatDiv            0      0.00%     85.65% # attempts to use FU when none available
system.switch_cpus_1.iq.fu_full::FloatMisc            0      0.00%     85.65% # attempts to use FU when none available
system.switch_cpus_1.iq.fu_full::FloatSqrt            0      0.00%     85.65% # attempts to use FU when none available
system.switch_cpus_1.iq.fu_full::SimdAdd            0      0.00%     85.65% # attempts to use FU when none available
system.switch_cpus_1.iq.fu_full::SimdAddAcc            0      0.00%     85.65% # attempts to use FU when none available
system.switch_cpus_1.iq.fu_full::SimdAlu            3      0.00%     85.65% # attempts to use FU when none available
system.switch_cpus_1.iq.fu_full::SimdCmp            0      0.00%     85.65% # attempts to use FU when none available
system.switch_cpus_1.iq.fu_full::SimdCvt            3      0.00%     85.65% # attempts to use FU when none available
system.switch_cpus_1.iq.fu_full::SimdMisc            0      0.00%     85.65% # attempts to use FU when none available
system.switch_cpus_1.iq.fu_full::SimdMult            0      0.00%     85.65% # attempts to use FU when none available
system.switch_cpus_1.iq.fu_full::SimdMultAcc            0      0.00%     85.65% # attempts to use FU when none available
system.switch_cpus_1.iq.fu_full::SimdShift            0      0.00%     85.65% # attempts to use FU when none available
system.switch_cpus_1.iq.fu_full::SimdShiftAcc            0      0.00%     85.65% # attempts to use FU when none available
system.switch_cpus_1.iq.fu_full::SimdDiv            0      0.00%     85.65% # attempts to use FU when none available
system.switch_cpus_1.iq.fu_full::SimdSqrt            0      0.00%     85.65% # attempts to use FU when none available
system.switch_cpus_1.iq.fu_full::SimdFloatAdd            0      0.00%     85.65% # attempts to use FU when none available
system.switch_cpus_1.iq.fu_full::SimdFloatAlu            0      0.00%     85.65% # attempts to use FU when none available
system.switch_cpus_1.iq.fu_full::SimdFloatCmp            0      0.00%     85.65% # attempts to use FU when none available
system.switch_cpus_1.iq.fu_full::SimdFloatCvt            0      0.00%     85.65% # attempts to use FU when none available
system.switch_cpus_1.iq.fu_full::SimdFloatDiv            0      0.00%     85.65% # attempts to use FU when none available
system.switch_cpus_1.iq.fu_full::SimdFloatMisc            0      0.00%     85.65% # attempts to use FU when none available
system.switch_cpus_1.iq.fu_full::SimdFloatMult            0      0.00%     85.65% # attempts to use FU when none available
system.switch_cpus_1.iq.fu_full::SimdFloatMultAcc            0      0.00%     85.65% # attempts to use FU when none available
system.switch_cpus_1.iq.fu_full::SimdFloatSqrt            0      0.00%     85.65% # attempts to use FU when none available
system.switch_cpus_1.iq.fu_full::SimdReduceAdd            0      0.00%     85.65% # attempts to use FU when none available
system.switch_cpus_1.iq.fu_full::SimdReduceAlu            0      0.00%     85.65% # attempts to use FU when none available
system.switch_cpus_1.iq.fu_full::SimdReduceCmp            0      0.00%     85.65% # attempts to use FU when none available
system.switch_cpus_1.iq.fu_full::SimdFloatReduceAdd            0      0.00%     85.65% # attempts to use FU when none available
system.switch_cpus_1.iq.fu_full::SimdFloatReduceCmp            0      0.00%     85.65% # attempts to use FU when none available
system.switch_cpus_1.iq.fu_full::SimdAes            0      0.00%     85.65% # attempts to use FU when none available
system.switch_cpus_1.iq.fu_full::SimdAesMix            0      0.00%     85.65% # attempts to use FU when none available
system.switch_cpus_1.iq.fu_full::SimdSha1Hash            0      0.00%     85.65% # attempts to use FU when none available
system.switch_cpus_1.iq.fu_full::SimdSha1Hash2            0      0.00%     85.65% # attempts to use FU when none available
system.switch_cpus_1.iq.fu_full::SimdSha256Hash            0      0.00%     85.65% # attempts to use FU when none available
system.switch_cpus_1.iq.fu_full::SimdSha256Hash2            0      0.00%     85.65% # attempts to use FU when none available
system.switch_cpus_1.iq.fu_full::SimdShaSigma2            0      0.00%     85.65% # attempts to use FU when none available
system.switch_cpus_1.iq.fu_full::SimdShaSigma3            0      0.00%     85.65% # attempts to use FU when none available
system.switch_cpus_1.iq.fu_full::SimdPredAlu            0      0.00%     85.65% # attempts to use FU when none available
system.switch_cpus_1.iq.fu_full::MemRead      2070112     13.58%     99.23% # attempts to use FU when none available
system.switch_cpus_1.iq.fu_full::MemWrite       116947      0.77%    100.00% # attempts to use FU when none available
system.switch_cpus_1.iq.fu_full::FloatMemRead            3      0.00%    100.00% # attempts to use FU when none available
system.switch_cpus_1.iq.fu_full::FloatMemWrite           76      0.00%    100.00% # attempts to use FU when none available
system.switch_cpus_1.iq.fu_full::IprAccess            0      0.00%    100.00% # attempts to use FU when none available
system.switch_cpus_1.iq.fu_full::InstPrefetch            0      0.00%    100.00% # attempts to use FU when none available
system.switch_cpus_1.iq.int_alu_accesses    758449165                       # Number of integer alu accesses
system.switch_cpus_1.iq.int_inst_queue_reads   2125887372                       # Number of integer instruction queue reads
system.switch_cpus_1.iq.int_inst_queue_wakeup_accesses    708900668                       # Number of integer instruction queue wakeup accesses
system.switch_cpus_1.iq.int_inst_queue_writes   1246799982                       # Number of integer instruction queue writes
system.switch_cpus_1.iq.iqInstsAdded        877434824                       # Number of instructions added to the IQ (excludes non-spec)
system.switch_cpus_1.iq.iqInstsIssued       746393792                       # Number of instructions issued
system.switch_cpus_1.iq.iqNonSpecInstsAdded          206                       # Number of non-speculative instructions added to the IQ
system.switch_cpus_1.iq.iqSquashedInstsExamined    370406490                       # Number of squashed instructions iterated over during squash; mainly for profiling
system.switch_cpus_1.iq.iqSquashedInstsIssued      5687513                       # Number of squashed instructions issued
system.switch_cpus_1.iq.iqSquashedNonSpecRemoved          200                       # Number of squashed non-spec instructions that were removed
system.switch_cpus_1.iq.iqSquashedOperandsExamined    534549499                       # Number of squashed operands that are examined and possibly removed from graph
system.switch_cpus_1.iq.issued_per_cycle::samples    612771001                       # Number of insts issued each cycle
system.switch_cpus_1.iq.issued_per_cycle::mean     1.218063                       # Number of insts issued each cycle
system.switch_cpus_1.iq.issued_per_cycle::stdev     2.172380                       # Number of insts issued each cycle
system.switch_cpus_1.iq.issued_per_cycle::underflows            0      0.00%      0.00% # Number of insts issued each cycle
system.switch_cpus_1.iq.issued_per_cycle::0    416797542     68.02%     68.02% # Number of insts issued each cycle
system.switch_cpus_1.iq.issued_per_cycle::1     38477010      6.28%     74.30% # Number of insts issued each cycle
system.switch_cpus_1.iq.issued_per_cycle::2     34204168      5.58%     79.88% # Number of insts issued each cycle
system.switch_cpus_1.iq.issued_per_cycle::3     22770620      3.72%     83.60% # Number of insts issued each cycle
system.switch_cpus_1.iq.issued_per_cycle::4     24239294      3.96%     87.55% # Number of insts issued each cycle
system.switch_cpus_1.iq.issued_per_cycle::5     23996804      3.92%     91.47% # Number of insts issued each cycle
system.switch_cpus_1.iq.issued_per_cycle::6     23574383      3.85%     95.31% # Number of insts issued each cycle
system.switch_cpus_1.iq.issued_per_cycle::7     16880348      2.75%     98.07% # Number of insts issued each cycle
system.switch_cpus_1.iq.issued_per_cycle::8     11830832      1.93%    100.00% # Number of insts issued each cycle
system.switch_cpus_1.iq.issued_per_cycle::overflows            0      0.00%    100.00% # Number of insts issued each cycle
system.switch_cpus_1.iq.issued_per_cycle::min_value            0                       # Number of insts issued each cycle
system.switch_cpus_1.iq.issued_per_cycle::max_value            8                       # Number of insts issued each cycle
system.switch_cpus_1.iq.issued_per_cycle::total    612771001                       # Number of insts issued each cycle
system.switch_cpus_1.iq.rate                 1.217980                       # Inst issue rate
system.switch_cpus_1.iq.vec_alu_accesses            0                       # Number of vector alu accesses
system.switch_cpus_1.iq.vec_inst_queue_reads            0                       # Number of vector instruction queue reads
system.switch_cpus_1.iq.vec_inst_queue_wakeup_accesses            0                       # Number of vector instruction queue wakeup accesses
system.switch_cpus_1.iq.vec_inst_queue_writes            0                       # Number of vector instruction queue writes
system.switch_cpus_1.itb.rdAccesses                 0                       # TLB accesses on read requests
system.switch_cpus_1.itb.rdMisses                   0                       # TLB misses on read requests
system.switch_cpus_1.itb.wrAccesses          75566700                       # TLB accesses on write requests
system.switch_cpus_1.itb.wrMisses                 604                       # TLB misses on write requests
system.switch_cpus_1.memDep0.conflictingLoads     29708212                       # Number of conflicting loads.
system.switch_cpus_1.memDep0.conflictingStores     16708963                       # Number of conflicting stores.
system.switch_cpus_1.memDep0.insertedLoads    152512997                       # Number of loads inserted to the mem dependence unit.
system.switch_cpus_1.memDep0.insertedStores     59317120                       # Number of stores inserted to the mem dependence unit.
system.switch_cpus_1.misc_regfile_reads     303750695                       # number of misc regfile reads
system.switch_cpus_1.numCycles              612812796                       # number of cpu cycles simulated
system.switch_cpus_1.numWorkItemsCompleted            0                       # number of work items this cpu completed
system.switch_cpus_1.numWorkItemsStarted            0                       # number of work items this cpu started
system.switch_cpus_1.rename.BlockCycles     301547244                       # Number of cycles rename is blocking
system.switch_cpus_1.rename.CommittedMaps    644747803                       # Number of HB maps that are committed
system.switch_cpus_1.rename.IQFullEvents     41141016                       # Number of times rename has blocked due to IQ full
system.switch_cpus_1.rename.IdleCycles       46005867                       # Number of cycles rename is idle
system.switch_cpus_1.rename.LQFullEvents     23087252                       # Number of times rename has blocked due to LQ full
system.switch_cpus_1.rename.ROBFullEvents      3239775                       # Number of times rename has blocked due to ROB full
system.switch_cpus_1.rename.RenameLookups   2470948541                       # Number of register rename lookups that rename has made
system.switch_cpus_1.rename.RenamedInsts    981984625                       # Number of instructions processed by rename
system.switch_cpus_1.rename.RenamedOperands   1202448347                       # Number of destination operands rename has renamed
system.switch_cpus_1.rename.RunCycles       121659253                       # Number of cycles rename is running
system.switch_cpus_1.rename.SQFullEvents     66593122                       # Number of times rename has blocked due to SQ full
system.switch_cpus_1.rename.SquashCycles      8716409                       # Number of cycles rename is squashing
system.switch_cpus_1.rename.UnblockCycles    134841985                       # Number of cycles rename is unblocking
system.switch_cpus_1.rename.UndoneMaps      557700544                       # Number of HB maps that are undone due to squashing
system.switch_cpus_1.rename.fp_rename_lookups      2618163                       # Number of floating rename lookups
system.switch_cpus_1.rename.int_rename_lookups   1575730150                       # Number of integer rename lookups
system.switch_cpus_1.rename.serializeStallCycles          221                       # count of cycles rename stalled for serializing inst
system.switch_cpus_1.rename.serializingInsts            7                       # count of serializing insts renamed
system.switch_cpus_1.rename.skidInsts       119057917                       # count of insts added to the skid buffer
system.switch_cpus_1.rename.tempSerializingInsts            6                       # count of temporary serializing insts renamed
system.switch_cpus_1.rob.rob_reads         1405892757                       # The number of ROB reads
system.switch_cpus_1.rob.rob_writes        1809830183                       # The number of ROB writes
system.switch_cpus_1.timesIdled                   336                       # Number of times that the entire CPU went into an idle state and unscheduled itself
system.tol2bus.snoop_filter.hit_multi_requests            0                       # Number of requests hitting in the snoop filter with multiple (>1) holders of the requested data.
system.tol2bus.snoop_filter.hit_multi_snoops            0                       # Number of snoops hitting in the snoop filter with multiple (>1) holders of the requested data.
system.tol2bus.snoop_filter.hit_single_requests      4710826                       # Number of requests hitting in the snoop filter with a single holder of the requested data.
system.tol2bus.snoop_filter.hit_single_snoops       692218                       # Number of snoops hitting in the snoop filter with a single holder of the requested data.
system.tol2bus.snoop_filter.tot_requests      9407764                       # Total number of requests made to the snoop filter.
system.tol2bus.snoop_filter.tot_snoops         692218                       # Total number of snoops made to the snoop filter.
system.tol3bus.snoop_filter.hit_multi_requests            0                       # Number of requests hitting in the snoop filter with multiple (>1) holders of the requested data.
system.tol3bus.snoop_filter.hit_multi_snoops            0                       # Number of snoops hitting in the snoop filter with multiple (>1) holders of the requested data.
system.tol3bus.snoop_filter.hit_single_requests      2890356                       # Number of requests hitting in the snoop filter with a single holder of the requested data.
system.tol3bus.snoop_filter.hit_single_snoops      2597978                       # Number of snoops hitting in the snoop filter with a single holder of the requested data.
system.tol3bus.snoop_filter.tot_requests      5780605                       # Total number of requests made to the snoop filter.
system.tol3bus.snoop_filter.tot_snoops        2597978                       # Total number of snoops made to the snoop filter.
system.membus.trans_dist::ReadResp            2226564                       # Transaction distribution
system.membus.trans_dist::WritebackDirty       629399                       # Transaction distribution
system.membus.trans_dist::CleanEvict          2129801                       # Transaction distribution
system.membus.trans_dist::ReadExReq            532810                       # Transaction distribution
system.membus.trans_dist::ReadExResp           532810                       # Transaction distribution
system.membus.trans_dist::ReadSharedReq       2226564                       # Transaction distribution
system.membus.pkt_count_system.l3.mem_side::system.mem_ctrls.port      8277948                       # Packet count per connected master and slave (bytes)
system.membus.pkt_count_system.l3.mem_side::total      8277948                       # Packet count per connected master and slave (bytes)
system.membus.pkt_count::total                8277948                       # Packet count per connected master and slave (bytes)
system.membus.pkt_size_system.l3.mem_side::system.mem_ctrls.port    216881472                       # Cumulative packet size per connected master and slave (bytes)
system.membus.pkt_size_system.l3.mem_side::total    216881472                       # Cumulative packet size per connected master and slave (bytes)
system.membus.pkt_size::total               216881472                       # Cumulative packet size per connected master and slave (bytes)
system.membus.snoops                                0                       # Total snoops (count)
system.membus.snoopTraffic                          0                       # Total snoop traffic (bytes)
system.membus.snoop_fanout::samples           2759374                       # Request fanout histogram
system.membus.snoop_fanout::mean                    0                       # Request fanout histogram
system.membus.snoop_fanout::stdev                   0                       # Request fanout histogram
system.membus.snoop_fanout::underflows              0      0.00%      0.00% # Request fanout histogram
system.membus.snoop_fanout::0                 2759374    100.00%    100.00% # Request fanout histogram
system.membus.snoop_fanout::1                       0      0.00%    100.00% # Request fanout histogram
system.membus.snoop_fanout::overflows               0      0.00%    100.00% # Request fanout histogram
system.membus.snoop_fanout::min_value               0                       # Request fanout histogram
system.membus.snoop_fanout::max_value               0                       # Request fanout histogram
system.membus.snoop_fanout::total             2759374                       # Request fanout histogram
system.membus.reqLayer2.occupancy          8739438000                       # Layer occupancy (ticks)
system.membus.reqLayer2.utilization               2.9                       # Layer utilization (%)
system.membus.respLayer1.occupancy        15042612000                       # Layer occupancy (ticks)
system.membus.respLayer1.utilization              4.9                       # Layer utilization (%)
system.membus.power_state.pwrStateResidencyTicks::UNDEFINED 1492579413500                       # Cumulative time (in ticks) in various power states
system.switch_cpus_1.dtb.walker.power_state.pwrStateResidencyTicks::UNDEFINED 1492579413500                       # Cumulative time (in ticks) in various power states
system.switch_cpus_1.itb.walker.power_state.pwrStateResidencyTicks::UNDEFINED 1492579413500                       # Cumulative time (in ticks) in various power states
system.switch_cpus_1.power_state.pwrStateResidencyTicks::OFF 1492579413500                       # Cumulative time (in ticks) in various power states
system.switch_cpus.dtb.walker.power_state.pwrStateResidencyTicks::UNDEFINED 1492579413500                       # Cumulative time (in ticks) in various power states
system.switch_cpus.itb.walker.power_state.pwrStateResidencyTicks::UNDEFINED 1492579413500                       # Cumulative time (in ticks) in various power states
system.switch_cpus.power_state.numTransitions            1                       # Number of power state transitions
system.switch_cpus.power_state.pwrStateResidencyTicks::OFF 1492579413500                       # Cumulative time (in ticks) in various power states
system.tol2bus.trans_dist::ReadResp           3962515                       # Transaction distribution
system.tol2bus.trans_dist::WritebackDirty      1823504                       # Transaction distribution
system.tol2bus.trans_dist::WritebackClean          670                       # Transaction distribution
system.tol2bus.trans_dist::CleanEvict         8362941                       # Transaction distribution
system.tol2bus.trans_dist::UpgradeReq           13889                       # Transaction distribution
system.tol2bus.trans_dist::UpgradeResp          13889                       # Transaction distribution
system.tol2bus.trans_dist::ReadExReq           734422                       # Transaction distribution
system.tol2bus.trans_dist::ReadExResp          734422                       # Transaction distribution
system.tol2bus.trans_dist::ReadCleanReq           671                       # Transaction distribution
system.tol2bus.trans_dist::ReadSharedReq      3961845                       # Transaction distribution
system.tol2bus.pkt_count_system.cpu.icache.mem_side::system.l2.cpu_side         2011                       # Packet count per connected master and slave (bytes)
system.tol2bus.pkt_count_system.cpu.dcache.mem_side::system.l2.cpu_side     14116579                       # Packet count per connected master and slave (bytes)
system.tol2bus.pkt_count::total              14118590                       # Packet count per connected master and slave (bytes)
system.tol2bus.pkt_size_system.cpu.icache.mem_side::system.l2.cpu_side        85760                       # Cumulative packet size per connected master and slave (bytes)
system.tol2bus.pkt_size_system.cpu.dcache.mem_side::system.l2.cpu_side    371018688                       # Cumulative packet size per connected master and slave (bytes)
system.tol2bus.pkt_size::total              371104448                       # Cumulative packet size per connected master and slave (bytes)
system.tol2bus.snoops                         5490178                       # Total snoops (count)
system.tol2bus.snoopTraffic                  46246656                       # Total snoop traffic (bytes)
system.tol2bus.snoop_fanout::samples         10201005                       # Request fanout histogram
system.tol2bus.snoop_fanout::mean            0.067858                       # Request fanout histogram
system.tol2bus.snoop_fanout::stdev           0.251502                       # Request fanout histogram
system.tol2bus.snoop_fanout::underflows             0      0.00%      0.00% # Request fanout histogram
system.tol2bus.snoop_fanout::0                9508787     93.21%     93.21% # Request fanout histogram
system.tol2bus.snoop_fanout::1                 692218      6.79%    100.00% # Request fanout histogram
system.tol2bus.snoop_fanout::2                      0      0.00%    100.00% # Request fanout histogram
system.tol2bus.snoop_fanout::3                      0      0.00%    100.00% # Request fanout histogram
system.tol2bus.snoop_fanout::4                      0      0.00%    100.00% # Request fanout histogram
system.tol2bus.snoop_fanout::overflows              0      0.00%    100.00% # Request fanout histogram
system.tol2bus.snoop_fanout::min_value              0                       # Request fanout histogram
system.tol2bus.snoop_fanout::max_value              1                       # Request fanout histogram
system.tol2bus.snoop_fanout::total           10201005                       # Request fanout histogram
system.tol2bus.reqLayer0.occupancy         5805452000                       # Layer occupancy (ticks)
system.tol2bus.reqLayer0.utilization              1.9                       # Layer utilization (%)
system.tol2bus.respLayer1.occupancy        7051345000                       # Layer occupancy (ticks)
system.tol2bus.respLayer1.utilization             2.3                       # Layer utilization (%)
system.tol2bus.respLayer0.occupancy           1005499                       # Layer occupancy (ticks)
system.tol2bus.respLayer0.utilization             0.0                       # Layer utilization (%)
system.tol2bus.power_state.pwrStateResidencyTicks::UNDEFINED 1492579413500                       # Cumulative time (in ticks) in various power states
system.voltage_domain.voltage                       1                       # Voltage in Volts
system.clk_domain.clock                          1000                       # Clock period in ticks
system.l2.demand_hits::.switch_cpus_1.inst           59                       # number of demand (read+write) hits
system.l2.demand_hits::.switch_cpus_1.data      1806629                       # number of demand (read+write) hits
system.l2.demand_hits::total                  1806688                       # number of demand (read+write) hits
system.l2.overall_hits::.switch_cpus_1.inst           59                       # number of overall hits
system.l2.overall_hits::.switch_cpus_1.data      1806629                       # number of overall hits
system.l2.overall_hits::total                 1806688                       # number of overall hits
system.l2.demand_misses::.switch_cpus_1.inst          612                       # number of demand (read+write) misses
system.l2.demand_misses::.switch_cpus_1.data      2889638                       # number of demand (read+write) misses
system.l2.demand_misses::total                2890250                       # number of demand (read+write) misses
system.l2.overall_misses::.switch_cpus_1.inst          612                       # number of overall misses
system.l2.overall_misses::.switch_cpus_1.data      2889638                       # number of overall misses
system.l2.overall_misses::total               2890250                       # number of overall misses
system.l2.demand_miss_latency::.switch_cpus_1.inst     58014500                       # number of demand (read+write) miss cycles
system.l2.demand_miss_latency::.switch_cpus_1.data 283794860500                       # number of demand (read+write) miss cycles
system.l2.demand_miss_latency::total     283852875000                       # number of demand (read+write) miss cycles
system.l2.overall_miss_latency::.switch_cpus_1.inst     58014500                       # number of overall miss cycles
system.l2.overall_miss_latency::.switch_cpus_1.data 283794860500                       # number of overall miss cycles
system.l2.overall_miss_latency::total    283852875000                       # number of overall miss cycles
system.l2.demand_accesses::.switch_cpus_1.inst          671                       # number of demand (read+write) accesses
system.l2.demand_accesses::.switch_cpus_1.data      4696267                       # number of demand (read+write) accesses
system.l2.demand_accesses::total              4696938                       # number of demand (read+write) accesses
system.l2.overall_accesses::.switch_cpus_1.inst          671                       # number of overall (read+write) accesses
system.l2.overall_accesses::.switch_cpus_1.data      4696267                       # number of overall (read+write) accesses
system.l2.overall_accesses::total             4696938                       # number of overall (read+write) accesses
system.l2.demand_miss_rate::.switch_cpus_1.inst     0.912072                       # miss rate for demand accesses
system.l2.demand_miss_rate::.switch_cpus_1.data     0.615305                       # miss rate for demand accesses
[...]
system.cpu.dcache.overall_misses::total      21796872                       # number of overall misses
system.cpu.dcache.demand_miss_latency::.switch_cpus.data  72414983500                       # number of demand (read+write) miss cycles
system.cpu.dcache.demand_miss_latency::.switch_cpus_1.data 444326518400                       # number of demand (read+write) miss cycles
system.cpu.dcache.demand_miss_latency::total 516741501900                       # number of demand (read+write) miss cycles
system.cpu.dcache.overall_miss_latency::.switch_cpus.data  72414983500                       # number of overall miss cycles
system.cpu.dcache.overall_miss_latency::.switch_cpus_1.data 444326518400                       # number of overall miss cycles
system.cpu.dcache.overall_miss_latency::total 516741501900                       # number of overall miss cycles
system.cpu.dcache.demand_accesses::.cpu.data    433795342                       # number of demand (read+write) accesses
system.cpu.dcache.demand_accesses::.switch_cpus.data     42364622                       # number of demand (read+write) accesses
system.cpu.dcache.demand_accesses::.switch_cpus_1.data    139290618                       # number of demand (read+write) accesses
system.cpu.dcache.demand_accesses::total    615450582                       # number of demand (read+write) accesses
system.cpu.dcache.overall_accesses::.cpu.data    433795342                       # number of overall (read+write) accesses
system.cpu.dcache.overall_accesses::.switch_cpus.data     42364622                       # number of overall (read+write) accesses
system.cpu.dcache.overall_accesses::.switch_cpus_1.data    139290618                       # number of overall (read+write) accesses
system.cpu.dcache.overall_accesses::total    615450582                       # number of overall (read+write) accesses
system.cpu.dcache.demand_miss_rate::.cpu.data     0.031404                       # miss rate for demand accesses
system.cpu.dcache.demand_miss_rate::.switch_cpus.data     0.031691                       # miss rate for demand accesses
system.cpu.dcache.demand_miss_rate::.switch_cpus_1.data     0.049045                       # miss rate for demand accesses
system.cpu.dcache.demand_miss_rate::total     0.035416                       # miss rate for demand accesses
system.cpu.dcache.overall_miss_rate::.cpu.data     0.031404                       # miss rate for overall accesses
system.cpu.dcache.overall_miss_rate::.switch_cpus.data     0.031691                       # miss rate for overall accesses
system.cpu.dcache.overall_miss_rate::.switch_cpus_1.data     0.049045                       # miss rate for overall accesses
system.cpu.dcache.overall_miss_rate::total     0.035416                       # miss rate for overall accesses
system.cpu.dcache.demand_avg_miss_latency::.switch_cpus.data 53936.741346                       # average overall miss latency
system.cpu.dcache.demand_avg_miss_latency::.switch_cpus_1.data 65040.481133                       # average overall miss latency
system.cpu.dcache.demand_avg_miss_latency::total 23707.140268                       # average overall miss latency
system.cpu.dcache.overall_avg_miss_latency::.switch_cpus.data 53936.741346                       # average overall miss latency
system.cpu.dcache.overall_avg_miss_latency::.switch_cpus_1.data 65040.481133                       # average overall miss latency
system.cpu.dcache.overall_avg_miss_latency::total 23707.140268                       # average overall miss latency
system.cpu.dcache.blocked_cycles::no_mshrs     39212908                       # number of cycles access was blocked
system.cpu.dcache.blocked_cycles::no_targets          413                       # number of cycles access was blocked
system.cpu.dcache.blocked::no_mshrs            911306                       # number of cycles access was blocked
system.cpu.dcache.blocked::no_targets               3                       # number of cycles access was blocked
system.cpu.dcache.avg_blocked_cycles::no_mshrs    43.029353                       # average number of cycles each access was blocked
system.cpu.dcache.avg_blocked_cycles::no_targets   137.666667                       # average number of cycles each access was blocked
system.cpu.dcache.writebacks::.writebacks      7988783                       # number of writebacks
system.cpu.dcache.writebacks::total           7988783                       # number of writebacks
system.cpu.dcache.demand_mshr_hits::.switch_cpus_1.data      2121389                       # number of demand (read+write) MSHR hits
system.cpu.dcache.demand_mshr_hits::total      2121389                       # number of demand (read+write) MSHR hits
system.cpu.dcache.overall_mshr_hits::.switch_cpus_1.data      2121389                       # number of overall MSHR hits
system.cpu.dcache.overall_mshr_hits::total      2121389                       # number of overall MSHR hits
system.cpu.dcache.demand_mshr_misses::.switch_cpus.data      1342591                       # number of demand (read+write) MSHR misses
system.cpu.dcache.demand_mshr_misses::.switch_cpus_1.data      4710149                       # number of demand (read+write) MSHR misses
system.cpu.dcache.demand_mshr_misses::total      6052740                       # number of demand (read+write) MSHR misses
system.cpu.dcache.overall_mshr_misses::.switch_cpus.data      1342591                       # number of overall MSHR misses
system.cpu.dcache.overall_mshr_misses::.switch_cpus_1.data      4710149                       # number of overall MSHR misses
system.cpu.dcache.overall_mshr_misses::total      6052740                       # number of overall MSHR misses
system.cpu.dcache.demand_mshr_miss_latency::.switch_cpus.data  71743688000                       # number of demand (read+write) MSHR miss cycles
system.cpu.dcache.demand_mshr_miss_latency::.switch_cpus_1.data 299198878400                       # number of demand (read+write) MSHR miss cycles
system.cpu.dcache.demand_mshr_miss_latency::total 370942566400                       # number of demand (read+write) MSHR miss cycles
system.cpu.dcache.overall_mshr_miss_latency::.switch_cpus.data  71743688000                       # number of overall MSHR miss cycles
system.cpu.dcache.overall_mshr_miss_latency::.switch_cpus_1.data 299198878400                       # number of overall MSHR miss cycles
system.cpu.dcache.overall_mshr_miss_latency::total 370942566400                       # number of overall MSHR miss cycles
system.cpu.dcache.demand_mshr_miss_rate::.switch_cpus.data     0.031691                       # mshr miss rate for demand accesses
system.cpu.dcache.demand_mshr_miss_rate::.switch_cpus_1.data     0.033815                       # mshr miss rate for demand accesses
system.cpu.dcache.demand_mshr_miss_rate::total     0.009835                       # mshr miss rate for demand accesses
system.cpu.dcache.overall_mshr_miss_rate::.switch_cpus.data     0.031691                       # mshr miss rate for overall accesses
system.cpu.dcache.overall_mshr_miss_rate::.switch_cpus_1.data     0.033815                       # mshr miss rate for overall accesses
system.cpu.dcache.overall_mshr_miss_rate::total     0.009835                       # mshr miss rate for overall accesses
system.cpu.dcache.demand_avg_mshr_miss_latency::.switch_cpus.data 53436.741346                       # average overall mshr miss latency
system.cpu.dcache.demand_avg_mshr_miss_latency::.switch_cpus_1.data 63522.168492                       # average overall mshr miss latency
system.cpu.dcache.demand_avg_mshr_miss_latency::total 61285.065342                       # average overall mshr miss latency
system.cpu.dcache.overall_avg_mshr_miss_latency::.switch_cpus.data 53436.741346                       # average overall mshr miss latency
system.cpu.dcache.overall_avg_mshr_miss_latency::.switch_cpus_1.data 63522.168492                       # average overall mshr miss latency
system.cpu.dcache.overall_avg_mshr_miss_latency::total 61285.065342                       # average overall mshr miss latency
system.cpu.dcache.replacements               19659732                       # number of replacements
system.cpu.dcache.ReadReq_hits::.cpu.data    311147530                       # number of ReadReq hits
system.cpu.dcache.ReadReq_hits::.switch_cpus.data     34157286                       # number of ReadReq hits
system.cpu.dcache.ReadReq_hits::.switch_cpus_1.data    102251233                       # number of ReadReq hits
system.cpu.dcache.ReadReq_hits::total       447556049                       # number of ReadReq hits
system.cpu.dcache.ReadReq_misses::.cpu.data     10608437                       # number of ReadReq misses
system.cpu.dcache.ReadReq_misses::.switch_cpus.data      1054639                       # number of ReadReq misses
system.cpu.dcache.ReadReq_misses::.switch_cpus_1.data      6083187                       # number of ReadReq misses
system.cpu.dcache.ReadReq_misses::total      17746263                       # number of ReadReq misses
system.cpu.dcache.ReadReq_miss_latency::.switch_cpus.data  48718350000                       # number of ReadReq miss cycles
system.cpu.dcache.ReadReq_miss_latency::.switch_cpus_1.data 387751515500                       # number of ReadReq miss cycles
system.cpu.dcache.ReadReq_miss_latency::total 436469865500                       # number of ReadReq miss cycles
system.cpu.dcache.ReadReq_accesses::.cpu.data    321755967                       # number of ReadReq accesses(hits+misses)
system.cpu.dcache.ReadReq_accesses::.switch_cpus.data     35211925                       # number of ReadReq accesses(hits+misses)
system.cpu.dcache.ReadReq_accesses::.switch_cpus_1.data    108334420                       # number of ReadReq accesses(hits+misses)
system.cpu.dcache.ReadReq_accesses::total    465302312                       # number of ReadReq accesses(hits+misses)
system.cpu.dcache.ReadReq_miss_rate::.cpu.data     0.032970                       # miss rate for ReadReq accesses
system.cpu.dcache.ReadReq_miss_rate::.switch_cpus.data     0.029951                       # miss rate for ReadReq accesses
system.cpu.dcache.ReadReq_miss_rate::.switch_cpus_1.data     0.056152                       # miss rate for ReadReq accesses
system.cpu.dcache.ReadReq_miss_rate::total     0.038139                       # miss rate for ReadReq accesses
system.cpu.dcache.ReadReq_avg_miss_latency::.switch_cpus.data 46194.337589                       # average ReadReq miss latency
system.cpu.dcache.ReadReq_avg_miss_latency::.switch_cpus_1.data 63741.508440                       # average ReadReq miss latency
system.cpu.dcache.ReadReq_avg_miss_latency::total 24595.029697                       # average ReadReq miss latency
system.cpu.dcache.ReadReq_mshr_hits::.switch_cpus_1.data      2121340                       # number of ReadReq MSHR hits
system.cpu.dcache.ReadReq_mshr_hits::total      2121340                       # number of ReadReq MSHR hits
system.cpu.dcache.ReadReq_mshr_misses::.switch_cpus.data      1054639                       # number of ReadReq MSHR misses
system.cpu.dcache.ReadReq_mshr_misses::.switch_cpus_1.data      3961847                       # number of ReadReq MSHR misses
system.cpu.dcache.ReadReq_mshr_misses::total      5016486                       # number of ReadReq MSHR misses
system.cpu.dcache.ReadReq_mshr_miss_latency::.switch_cpus.data  48191030500                       # number of ReadReq MSHR miss cycles
system.cpu.dcache.ReadReq_mshr_miss_latency::.switch_cpus_1.data 242999346500                       # number of ReadReq MSHR miss cycles
system.cpu.dcache.ReadReq_mshr_miss_latency::total 291190377000                       # number of ReadReq MSHR miss cycles
system.cpu.dcache.ReadReq_mshr_miss_rate::.switch_cpus.data     0.029951                       # mshr miss rate for ReadReq accesses
system.cpu.dcache.ReadReq_mshr_miss_rate::.switch_cpus_1.data     0.036571                       # mshr miss rate for ReadReq accesses
system.cpu.dcache.ReadReq_mshr_miss_rate::total     0.010781                       # mshr miss rate for ReadReq accesses
system.cpu.dcache.ReadReq_avg_mshr_miss_latency::.switch_cpus.data 45694.337589                       # average ReadReq mshr miss latency
system.cpu.dcache.ReadReq_avg_mshr_miss_latency::.switch_cpus_1.data 61334.863891                       # average ReadReq mshr miss latency
system.cpu.dcache.ReadReq_avg_mshr_miss_latency::total 58046.683874                       # average ReadReq mshr miss latency
system.cpu.dcache.WriteReq_hits::.cpu.data    109025069                       # number of WriteReq hits
system.cpu.dcache.WriteReq_hits::.switch_cpus.data      6864745                       # number of WriteReq hits
system.cpu.dcache.WriteReq_hits::.switch_cpus_1.data     30207847                       # number of WriteReq hits
system.cpu.dcache.WriteReq_hits::total      146097661                       # number of WriteReq hits
system.cpu.dcache.WriteReq_misses::.cpu.data      3014306                       # number of WriteReq misses
system.cpu.dcache.WriteReq_misses::.switch_cpus.data       287952                       # number of WriteReq misses
system.cpu.dcache.WriteReq_misses::.switch_cpus_1.data       748351                       # number of WriteReq misses
system.cpu.dcache.WriteReq_misses::total      4050609                       # number of WriteReq misses
system.cpu.dcache.WriteReq_miss_latency::.switch_cpus.data  23696633500                       # number of WriteReq miss cycles
system.cpu.dcache.WriteReq_miss_latency::.switch_cpus_1.data  56575002900                       # number of WriteReq miss cycles
system.cpu.dcache.WriteReq_miss_latency::total  80271636400                       # number of WriteReq miss cycles
system.cpu.dcache.WriteReq_accesses::.cpu.data    112039375                       # number of WriteReq accesses(hits+misses)
system.cpu.dcache.WriteReq_accesses::.switch_cpus.data      7152697                       # number of WriteReq accesses(hits+misses)
system.cpu.dcache.WriteReq_accesses::.switch_cpus_1.data     30956198                       # number of WriteReq accesses(hits+misses)
system.cpu.dcache.WriteReq_accesses::total    150148270                       # number of WriteReq accesses(hits+misses)
system.cpu.dcache.WriteReq_miss_rate::.cpu.data     0.026904                       # miss rate for WriteReq accesses
system.cpu.dcache.WriteReq_miss_rate::.switch_cpus.data     0.040258                       # miss rate for WriteReq accesses
system.cpu.dcache.WriteReq_miss_rate::.switch_cpus_1.data     0.024175                       # miss rate for WriteReq accesses
system.cpu.dcache.WriteReq_miss_rate::total     0.026977                       # miss rate for WriteReq accesses
system.cpu.dcache.WriteReq_avg_miss_latency::.switch_cpus.data 82293.693046                       # average WriteReq miss latency
system.cpu.dcache.WriteReq_avg_miss_latency::.switch_cpus_1.data 75599.555423                       # average WriteReq miss latency
system.cpu.dcache.WriteReq_avg_miss_latency::total 19817.177220                       # average WriteReq miss latency
system.cpu.dcache.WriteReq_mshr_hits::.switch_cpus_1.data           49                       # number of WriteReq MSHR hits
system.cpu.dcache.WriteReq_mshr_hits::total           49                       # number of WriteReq MSHR hits
system.cpu.dcache.WriteReq_mshr_misses::.switch_cpus.data       287952                       # number of WriteReq MSHR misses
system.cpu.dcache.WriteReq_mshr_misses::.switch_cpus_1.data       748302                       # number of WriteReq MSHR misses
system.cpu.dcache.WriteReq_mshr_misses::total      1036254                       # number of WriteReq MSHR misses
system.cpu.dcache.WriteReq_mshr_miss_latency::.switch_cpus.data  23552657500                       # number of WriteReq MSHR miss cycles
system.cpu.dcache.WriteReq_mshr_miss_latency::.switch_cpus_1.data  56199531900                       # number of WriteReq MSHR miss cycles
system.cpu.dcache.WriteReq_mshr_miss_latency::total  79752189400                       # number of WriteReq MSHR miss cycles
system.cpu.dcache.WriteReq_mshr_miss_rate::.switch_cpus.data     0.040258                       # mshr miss rate for WriteReq accesses
system.cpu.dcache.WriteReq_mshr_miss_rate::.switch_cpus_1.data     0.024173                       # mshr miss rate for WriteReq accesses
system.cpu.dcache.WriteReq_mshr_miss_rate::total     0.006902                       # mshr miss rate for WriteReq accesses
system.cpu.dcache.WriteReq_avg_mshr_miss_latency::.switch_cpus.data 81793.693046                       # average WriteReq mshr miss latency
system.cpu.dcache.WriteReq_avg_mshr_miss_latency::.switch_cpus_1.data 75102.741807                       # average WriteReq mshr miss latency
system.cpu.dcache.WriteReq_avg_mshr_miss_latency::total 76962.008735                       # average WriteReq mshr miss latency
system.cpu.dcache.power_state.pwrStateResidencyTicks::UNDEFINED 1492579413500                       # Cumulative time (in ticks) in various power states
system.cpu.dcache.tags.tagsinuse           511.996057                       # Cycle average of tags in use
system.cpu.dcache.tags.total_refs           613335875                       # Total number of references to valid blocks.
system.cpu.dcache.tags.sampled_refs          19660244                       # Sample count of references to valid blocks.
system.cpu.dcache.tags.avg_refs             31.196758                       # Average number of references to valid blocks.
system.cpu.dcache.tags.warmup_cycle              1500                       # Cycle when the warmup percentage was hit.
system.cpu.dcache.tags.occ_blocks::.cpu.data   352.034057                       # Average occupied blocks per requestor
system.cpu.dcache.tags.occ_blocks::.switch_cpus.data    54.860768                       # Average occupied blocks per requestor
system.cpu.dcache.tags.occ_blocks::.switch_cpus_1.data   105.101232                       # Average occupied blocks per requestor
system.cpu.dcache.tags.occ_percent::.cpu.data     0.687567                       # Average percentage of cache occupancy
system.cpu.dcache.tags.occ_percent::.switch_cpus.data     0.107150                       # Average percentage of cache occupancy
system.cpu.dcache.tags.occ_percent::.switch_cpus_1.data     0.205276                       # Average percentage of cache occupancy
system.cpu.dcache.tags.occ_percent::total     0.999992                       # Average percentage of cache occupancy
system.cpu.dcache.tags.occ_task_id_blocks::1024          512                       # Occupied blocks per task id
system.cpu.dcache.tags.age_task_id_blocks_1024::0          118                       # Occupied blocks per task id
system.cpu.dcache.tags.age_task_id_blocks_1024::1          394                       # Occupied blocks per task id
system.cpu.dcache.tags.occ_task_id_percent::1024            1                       # Percentage of cache occupancy per task id
system.cpu.dcache.tags.tag_accesses        2481462572                       # Number of tag accesses
system.cpu.dcache.tags.data_accesses       2481462572                       # Number of data accesses
system.cpu.dcache.tags.power_state.pwrStateResidencyTicks::UNDEFINED 1492579413500                       # Cumulative time (in ticks) in various power states
system.cpu.power_state.numTransitions               2                       # Number of power state transitions
system.cpu.power_state.pwrStateResidencyTicks::ON 1026110800500                       # Cumulative time (in ticks) in various power states
system.cpu.power_state.pwrStateResidencyTicks::OFF 466468613000                       # Cumulative time (in ticks) in various power states

---------- End Simulation Statistics   ----------
