
---------- Begin Simulation Statistics ----------
final_tick                               1528563639500                       # Number of ticks from beginning of simulation (restored from checkpoints and never reset)
host_inst_rate                                 504858                       # Simulator instruction rate (inst/s)
host_mem_usage                                 803144                       # Number of bytes of host memory used
host_op_rate                                   954122                       # Simulator op (including micro ops) rate (op/s)
host_seconds                                  4159.58                       # Real time elapsed on the host
host_tick_rate                               72553930                       # Simulator tick rate (ticks/s)
sim_freq                                 1000000000000                       # Frequency of simulated ticks
sim_insts                                  2100000004                       # Number of instructions simulated
sim_ops                                    3968750668                       # Number of ops (including micro ops) simulated
sim_seconds                                  0.301794                       # Number of seconds simulated
sim_ticks                                301794146500                       # Number of ticks simulated
system.cpu.committedInsts                           0                       # Number of instructions committed
system.cpu.committedOps                             0                       # Number of ops (including micro ops) committed
system.cpu.dtb.rdAccesses                           0                       # TLB accesses on read requests
system.cpu.dtb.rdMisses                             0                       # TLB misses on read requests
system.cpu.dtb.wrAccesses                           0                       # TLB accesses on write requests
system.cpu.dtb.wrMisses                             0                       # TLB misses on write requests
system.cpu.idle_fraction                            0                       # Percentage of idle cycles
system.cpu.itb.rdAccesses                           0                       # TLB accesses on read requests
system.cpu.itb.rdMisses                             0                       # TLB misses on read requests
system.cpu.itb.wrAccesses                           0                       # TLB accesses on write requests
system.cpu.itb.wrMisses                             0                       # TLB misses on write requests
system.cpu.not_idle_fraction                        1                       # Percentage of non-idle cycles
system.cpu.numCycles                                0                       # number of cpu cycles simulated
system.cpu.numWorkItemsCompleted                    0                       # number of work items this cpu completed
system.cpu.numWorkItemsStarted                      0                       # number of work items this cpu started
system.cpu.num_busy_cycles                          0                       # Number of busy cycles
system.cpu.num_conditional_control_insts            0                       # number of instructions that are conditional controls
system.cpu.num_fp_alu_accesses                      0                       # Number of float alu accesses
system.cpu.num_fp_insts                             0                       # number of float instructions
system.cpu.num_fp_register_reads                    0                       # number of times the floating registers were read
system.cpu.num_fp_register_writes                   0                       # number of times the floating registers were written
system.cpu.num_func_calls                           0                       # number of times a function call or return occured
system.cpu.num_idle_cycles                          0                       # Number of idle cycles
system.cpu.num_int_alu_accesses                     0                       # Number of integer alu accesses
system.cpu.num_int_insts                            0                       # number of integer instructions
system.cpu.num_int_register_reads                   0                       # number of times the integer registers were read
system.cpu.num_int_register_writes                  0                       # number of times the integer registers were written
system.cpu.num_load_insts                           0                       # Number of load instructions
system.cpu.num_mem_refs                             0                       # number of memory refs
system.cpu.num_store_insts                          0                       # Number of store instructions
system.cpu.num_vec_alu_accesses                     0                       # Number of vector alu accesses
system.cpu.num_vec_insts                            0                       # number of vector instructions
system.cpu.num_vec_register_reads                   0                       # number of times the vector registers were read
system.cpu.num_vec_register_writes                  0                       # number of times the vector registers were written
system.cpu.op_class::No_OpClass                     0                       # Class of executed instruction
system.cpu.op_class::IntAlu                         0                       # Class of executed instruction
system.cpu.op_class::IntMult                        0                       # Class of executed instruction
system.cpu.op_class::IntDiv                         0                       # Class of executed instruction
system.cpu.op_class::FloatAdd                       0                       # Class of executed instruction
system.cpu.op_class::FloatCmp                       0                       # Class of executed instruction
system.cpu.op_class::FloatCvt                       0                       # Class of executed instruction
system.cpu.op_class::FloatMult                      0                       # Class of executed instruction
system.cpu.op_class::FloatMultAcc                   0                       # Class of executed instruction
system.cpu.op_class::FloatDiv                       0                       # Class of executed instruction
system.cpu.op_class::FloatMisc                      0                       # Class of executed instruction
system.cpu.op_class::FloatSqrt                      0                       # Class of executed instruction
system.cpu.op_class::SimdAdd                        0                       # Class of executed instruction
system.cpu.op_class::SimdAddAcc                     0                       # Class of executed instruction
system.cpu.op_class::SimdAlu                        0                       # Class of executed instruction
system.cpu.op_class::SimdCmp                        0                       # Class of executed instruction
system.cpu.op_class::SimdCvt                        0                       # Class of executed instruction
system.cpu.op_class::SimdMisc                       0                       # Class of executed instruction
system.cpu.op_class::SimdMult                       0                       # Class of executed instruction
system.cpu.op_class::SimdMultAcc                    0                       # Class of executed instruction
system.cpu.op_class::SimdShift                      0                       # Class of executed instruction
system.cpu.op_class::SimdShiftAcc                   0                       # Class of executed instruction
system.cpu.op_class::SimdDiv                        0                       # Class of executed instruction
system.cpu.op_class::SimdSqrt                       0                       # Class of executed instruction
system.cpu.op_class::SimdFloatAdd                   0                       # Class of executed instruction
system.cpu.op_class::SimdFloatAlu                   0                       # Class of executed instruction
system.cpu.op_class::SimdFloatCmp                   0                       # Class of executed instruction
system.cpu.op_class::SimdFloatCvt                   0                       # Class of executed instruction
system.cpu.op_class::SimdFloatDiv                   0                       # Class of executed instruction
system.cpu.op_class::SimdFloatMisc                  0                       # Class of executed instruction
system.cpu.op_class::SimdFloatMult                  0                       # Class of executed instruction
system.cpu.op_class::SimdFloatMultAcc               0                       # Class of executed instruction
system.cpu.op_class::SimdFloatSqrt                  0                       # Class of executed instruction
system.cpu.op_class::SimdReduceAdd                  0                       # Class of executed instruction
system.cpu.op_class::SimdReduceAlu                  0                       # Class of executed instruction
system.cpu.op_class::SimdReduceCmp                  0                       # Class of executed instruction
system.cpu.op_class::SimdFloatReduceAdd             0                       # Class of executed instruction
system.cpu.op_class::SimdFloatReduceCmp             0                       # Class of executed instruction
system.cpu.op_class::SimdAes                        0                       # Class of executed instruction
system.cpu.op_class::SimdAesMix                     0                       # Class of executed instruction
system.cpu.op_class::SimdSha1Hash                   0                       # Class of executed instruction
system.cpu.op_class::SimdSha1Hash2                  0                       # Class of executed instruction
system.cpu.op_class::SimdSha256Hash                 0                       # Class of executed instruction
system.cpu.op_class::SimdSha256Hash2                0                       # Class of executed instruction
system.cpu.op_class::SimdShaSigma2                  0                       # Class of executed instruction
system.cpu.op_class::SimdShaSigma3                  0                       # Class of executed instruction
system.cpu.op_class::SimdPredAlu                    0                       # Class of executed instruction
system.cpu.op_class::MemRead                        0                       # Class of executed instruction
system.cpu.op_class::MemWrite                       0                       # Class of executed instruction
system.cpu.op_class::FloatMemRead                   0                       # Class of executed instruction
system.cpu.op_class::FloatMemWrite                  0                       # Class of executed instruction
system.cpu.op_class::IprAccess                      0                       # Class of executed instruction
system.cpu.op_class::InstPrefetch                   0                       # Class of executed instruction
system.cpu.op_class::total                          0                       # Class of executed instruction
system.cpu.workload.numSyscalls                   478                       # Number of system calls
system.membus.snoop_filter.hit_multi_requests            0                       # Number of requests hitting in the snoop filter with multiple (>1) holders of the requested data.
system.membus.snoop_filter.hit_multi_snoops            0                       # Number of snoops hitting in the snoop filter with multiple (>1) holders of the requested data.
system.membus.snoop_filter.hit_single_requests      1062867                       # Number of requests hitting in the snoop filter with a single holder of the requested data.
system.membus.snoop_filter.hit_single_snoops            0                       # Number of snoops hitting in the snoop filter with a single holder of the requested data.
system.membus.snoop_filter.tot_requests       2125652                       # Total number of requests made to the snoop filter.
system.membus.snoop_filter.tot_snoops               0                       # Total number of snoops made to the snoop filter.
system.switch_cpus.committedInsts                   0                       # Number of instructions committed
system.switch_cpus.committedOps                     0                       # Number of ops (including micro ops) committed
system.switch_cpus.dtb.rdAccesses                   0                       # TLB accesses on read requests
system.switch_cpus.dtb.rdMisses                     0                       # TLB misses on read requests
system.switch_cpus.dtb.wrAccesses                   0                       # TLB accesses on write requests
system.switch_cpus.dtb.wrMisses                     0                       # TLB misses on write requests
system.switch_cpus.idle_fraction                    0                       # Percentage of idle cycles
system.switch_cpus.itb.rdAccesses                   0                       # TLB accesses on read requests
system.switch_cpus.itb.rdMisses                     0                       # TLB misses on read requests
system.switch_cpus.itb.wrAccesses                   0                       # TLB accesses on write requests
system.switch_cpus.itb.wrMisses                     0                       # TLB misses on write requests
system.switch_cpus.not_idle_fraction                1                       # Percentage of non-idle cycles
system.switch_cpus.numCycles                        0                       # number of cpu cycles simulated
system.switch_cpus.numWorkItemsCompleted            0                       # number of work items this cpu completed
system.switch_cpus.numWorkItemsStarted              0                       # number of work items this cpu started
system.switch_cpus.num_busy_cycles                  0                       # Number of busy cycles
system.switch_cpus.num_conditional_control_insts            0                       # number of instructions that are conditional controls
system.switch_cpus.num_fp_alu_accesses              0                       # Number of float alu accesses
system.switch_cpus.num_fp_insts                     0                       # number of float instructions
system.switch_cpus.num_fp_register_reads            0                       # number of times the floating registers were read
system.switch_cpus.num_fp_register_writes            0                       # number of times the floating registers were written
system.switch_cpus.num_func_calls                   0                       # number of times a function call or return occured
system.switch_cpus.num_idle_cycles                  0                       # Number of idle cycles
system.switch_cpus.num_int_alu_accesses             0                       # Number of integer alu accesses
system.switch_cpus.num_int_insts                    0                       # number of integer instructions
system.switch_cpus.num_int_register_reads            0                       # number of times the integer registers were read
system.switch_cpus.num_int_register_writes            0                       # number of times the integer registers were written
system.switch_cpus.num_load_insts                   0                       # Number of load instructions
system.switch_cpus.num_mem_refs                     0                       # number of memory refs
system.switch_cpus.num_store_insts                  0                       # Number of store instructions
system.switch_cpus.num_vec_alu_accesses             0                       # Number of vector alu accesses
system.switch_cpus.num_vec_insts                    0                       # number of vector instructions
system.switch_cpus.num_vec_register_reads            0                       # number of times the vector registers were read
system.switch_cpus.num_vec_register_writes            0                       # number of times the vector registers were written
system.switch_cpus.op_class::No_OpClass             0                       # Class of executed instruction
system.switch_cpus.op_class::IntAlu                 0                       # Class of executed instruction
system.switch_cpus.op_class::IntMult                0                       # Class of executed instruction
system.switch_cpus.op_class::IntDiv                 0                       # Class of executed instruction
system.switch_cpus.op_class::FloatAdd               0                       # Class of executed instruction
system.switch_cpus.op_class::FloatCmp               0                       # Class of executed instruction
system.switch_cpus.op_class::FloatCvt               0                       # Class of executed instruction
system.switch_cpus.op_class::FloatMult              0                       # Class of executed instruction
system.switch_cpus.op_class::FloatMultAcc            0                       # Class of executed instruction
system.switch_cpus.op_class::FloatDiv               0                       # Class of executed instruction
system.switch_cpus.op_class::FloatMisc              0                       # Class of executed instruction
system.switch_cpus.op_class::FloatSqrt              0                       # Class of executed instruction
system.switch_cpus.op_class::SimdAdd                0                       # Class of executed instruction
system.switch_cpus.op_class::SimdAddAcc             0                       # Class of executed instruction
system.switch_cpus.op_class::SimdAlu                0                       # Class of executed instruction
system.switch_cpus.op_class::SimdCmp                0                       # Class of executed instruction
system.switch_cpus.op_class::SimdCvt                0                       # Class of executed instruction
system.switch_cpus.op_class::SimdMisc               0                       # Class of executed instruction
system.switch_cpus.op_class::SimdMult               0                       # Class of executed instruction
system.switch_cpus.op_class::SimdMultAcc            0                       # Class of executed instruction
system.switch_cpus.op_class::SimdShift              0                       # Class of executed instruction
system.switch_cpus.op_class::SimdShiftAcc            0                       # Class of executed instruction
system.switch_cpus.op_class::SimdDiv                0                       # Class of executed instruction
system.switch_cpus.op_class::SimdSqrt               0                       # Class of executed instruction
system.switch_cpus.op_class::SimdFloatAdd            0                       # Class of executed instruction
system.switch_cpus.op_class::SimdFloatAlu            0                       # Class of executed instruction
system.switch_cpus.op_class::SimdFloatCmp            0                       # Class of executed instruction
system.switch_cpus.op_class::SimdFloatCvt            0                       # Class of executed instruction
system.switch_cpus.op_class::SimdFloatDiv            0                       # Class of executed instruction
system.switch_cpus.op_class::SimdFloatMisc            0                       # Class of executed instruction
system.switch_cpus.op_class::SimdFloatMult            0                       # Class of executed instruction
system.switch_cpus.op_class::SimdFloatMultAcc            0                       # Class of executed instruction
system.switch_cpus.op_class::SimdFloatSqrt            0                       # Class of executed instruction
system.switch_cpus.op_class::SimdReduceAdd            0                       # Class of executed instruction
system.switch_cpus.op_class::SimdReduceAlu            0                       # Class of executed instruction
system.switch_cpus.op_class::SimdReduceCmp            0                       # Class of executed instruction
system.switch_cpus.op_class::SimdFloatReduceAdd            0                       # Class of executed instruction
system.switch_cpus.op_class::SimdFloatReduceCmp            0                       # Class of executed instruction
system.switch_cpus.op_class::SimdAes                0                       # Class of executed instruction
system.switch_cpus.op_class::SimdAesMix             0                       # Class of executed instruction
system.switch_cpus.op_class::SimdSha1Hash            0                       # Class of executed instruction
system.switch_cpus.op_class::SimdSha1Hash2            0                       # Class of executed instruction
system.switch_cpus.op_class::SimdSha256Hash            0                       # Class of executed instruction
system.switch_cpus.op_class::SimdSha256Hash2            0                       # Class of executed instruction
system.switch_cpus.op_class::SimdShaSigma2            0                       # Class of executed instruction
system.switch_cpus.op_class::SimdShaSigma3            0                       # Class of executed instruction
system.switch_cpus.op_class::SimdPredAlu            0                       # Class of executed instruction
system.switch_cpus.op_class::MemRead                0                       # Class of executed instruction
system.switch_cpus.op_class::MemWrite               0                       # Class of executed instruction
system.switch_cpus.op_class::FloatMemRead            0                       # Class of executed instruction
system.switch_cpus.op_class::FloatMemWrite            0                       # Class of executed instruction
system.switch_cpus.op_class::IprAccess              0                       # Class of executed instruction
system.switch_cpus.op_class::InstPrefetch            0                       # Class of executed instruction
system.switch_cpus.op_class::total                  0                       # Class of executed instruction
system.switch_cpus_1.branchPred.BTBCorrect            0                       # Number of correct BTB predictions (this stat may not work properly.
system.switch_cpus_1.branchPred.BTBHitPct          nan                       # BTB Hit Percentage
system.switch_cpus_1.branchPred.BTBHits             0                       # Number of BTB hits
system.switch_cpus_1.branchPred.BTBLookups            0                       # Number of BTB lookups
system.switch_cpus_1.branchPred.RASInCorrect           39                       # Number of incorrect RAS predictions.
system.switch_cpus_1.branchPred.condIncorrect      8442516                       # Number of conditional branches incorrect
system.switch_cpus_1.branchPred.condPredicted    201436338                       # Number of conditional branches predicted
system.switch_cpus_1.branchPred.indirectHits     87432470                       # Number of indirect target hits.
system.switch_cpus_1.branchPred.indirectLookups    109008181                       # Number of indirect predictor lookups.
system.switch_cpus_1.branchPred.indirectMisses     21575711                       # Number of indirect misses.
system.switch_cpus_1.branchPred.lookups     229614853                       # Number of BP lookups
system.switch_cpus_1.branchPred.usedRAS      13133938                       # Number of times the RAS was used to get a target.
system.switch_cpus_1.branchPredindirectMispredicted      5878489                       # Number of mispredicted indirect branches.
system.switch_cpus_1.cc_regfile_reads       932051656                       # number of cc regfile reads
system.switch_cpus_1.cc_regfile_writes      564635545                       # number of cc regfile writes
system.switch_cpus_1.commit.amos                    0                       # Number of atomic instructions committed
system.switch_cpus_1.commit.branchMispredicts      8445107                       # The number of times a branch was mispredicted
system.switch_cpus_1.commit.branches        171743664                       # Number of branches committed
system.switch_cpus_1.commit.bw_lim_events    153037847                       # number cycles where commit BW limit reached
system.switch_cpus_1.commit.commitNonSpecStalls         6242                       # The number of times commit has been forced to stall to communicate backwards
system.switch_cpus_1.commit.commitSquashedInsts    368343925                       # The number of squashed insts skipped by commit
system.switch_cpus_1.commit.committedInsts   1000000002                       # Number of instructions committed
system.switch_cpus_1.commit.committedOps   1872566051                       # Number of ops (including micro ops) committed
system.switch_cpus_1.commit.committed_per_cycle::samples    551686966                       # Number of insts commited each cycle
system.switch_cpus_1.commit.committed_per_cycle::mean     3.394255                       # Number of insts commited each cycle
system.switch_cpus_1.commit.committed_per_cycle::stdev     3.337153                       # Number of insts commited each cycle
system.switch_cpus_1.commit.committed_per_cycle::underflows            0      0.00%      0.00% # Number of insts commited each cycle
system.switch_cpus_1.commit.committed_per_cycle::0    185920433     33.70%     33.70% # Number of insts commited each cycle
system.switch_cpus_1.commit.committed_per_cycle::1     59510491     10.79%     44.49% # Number of insts commited each cycle
system.switch_cpus_1.commit.committed_per_cycle::2     37613920      6.82%     51.31% # Number of insts commited each cycle
system.switch_cpus_1.commit.committed_per_cycle::3     41632091      7.55%     58.85% # Number of insts commited each cycle
system.switch_cpus_1.commit.committed_per_cycle::4     20564030      3.73%     62.58% # Number of insts commited each cycle
system.switch_cpus_1.commit.committed_per_cycle::5     26038410      4.72%     67.30% # Number of insts commited each cycle
system.switch_cpus_1.commit.committed_per_cycle::6     15407707      2.79%     70.09% # Number of insts commited each cycle
system.switch_cpus_1.commit.committed_per_cycle::7     11962037      2.17%     72.26% # Number of insts commited each cycle
system.switch_cpus_1.commit.committed_per_cycle::8    153037847     27.74%    100.00% # Number of insts commited each cycle
system.switch_cpus_1.commit.committed_per_cycle::overflows            0      0.00%    100.00% # Number of insts commited each cycle
system.switch_cpus_1.commit.committed_per_cycle::min_value            0                       # Number of insts commited each cycle
system.switch_cpus_1.commit.committed_per_cycle::max_value            8                       # Number of insts commited each cycle
system.switch_cpus_1.commit.committed_per_cycle::total    551686966                       # Number of insts commited each cycle
system.switch_cpus_1.commit.fp_insts        353215384                       # Number of committed floating point instructions.
system.switch_cpus_1.commit.function_calls      9265651                       # Number of function calls committed.
system.switch_cpus_1.commit.int_insts      1600442763                       # Number of committed integer instructions.
system.switch_cpus_1.commit.loads           238523106                       # Number of loads committed
system.switch_cpus_1.commit.membars               108                       # Number of memory barriers committed
system.switch_cpus_1.commit.op_class_0::No_OpClass      4148588      0.22%      0.22% # Class of committed instruction
system.switch_cpus_1.commit.op_class_0::IntAlu   1289330596     68.85%     69.08% # Class of committed instruction
system.switch_cpus_1.commit.op_class_0::IntMult      1075496      0.06%     69.13% # Class of committed instruction
system.switch_cpus_1.commit.op_class_0::IntDiv      6341911      0.34%     69.47% # Class of committed instruction
system.switch_cpus_1.commit.op_class_0::FloatAdd     43161488      2.30%     71.78% # Class of committed instruction
system.switch_cpus_1.commit.op_class_0::FloatCmp            0      0.00%     71.78% # Class of committed instruction
system.switch_cpus_1.commit.op_class_0::FloatCvt          112      0.00%     71.78% # Class of committed instruction
system.switch_cpus_1.commit.op_class_0::FloatMult            0      0.00%     71.78% # Class of committed instruction
system.switch_cpus_1.commit.op_class_0::FloatMultAcc            0      0.00%     71.78% # Class of committed instruction
system.switch_cpus_1.commit.op_class_0::FloatDiv            0      0.00%     71.78% # Class of committed instruction
system.switch_cpus_1.commit.op_class_0::FloatMisc            0      0.00%     71.78% # Class of committed instruction
system.switch_cpus_1.commit.op_class_0::FloatSqrt            0      0.00%     71.78% # Class of committed instruction
system.switch_cpus_1.commit.op_class_0::SimdAdd           98      0.00%     71.78% # Class of committed instruction
system.switch_cpus_1.commit.op_class_0::SimdAddAcc            0      0.00%     71.78% # Class of committed instruction
system.switch_cpus_1.commit.op_class_0::SimdAlu     37520476      2.00%     73.78% # Class of committed instruction
system.switch_cpus_1.commit.op_class_0::SimdCmp       785328      0.04%     73.82% # Class of committed instruction
system.switch_cpus_1.commit.op_class_0::SimdCvt      4519604      0.24%     74.06% # Class of committed instruction
system.switch_cpus_1.commit.op_class_0::SimdMisc     20653471      1.10%     75.17% # Class of committed instruction
system.switch_cpus_1.commit.op_class_0::SimdMult            0      0.00%     75.17% # Class of committed instruction
system.switch_cpus_1.commit.op_class_0::SimdMultAcc            0      0.00%     75.17% # Class of committed instruction
system.switch_cpus_1.commit.op_class_0::SimdShift           49      0.00%     75.17% # Class of committed instruction
system.switch_cpus_1.commit.op_class_0::SimdShiftAcc            0      0.00%     75.17% # Class of committed instruction
system.switch_cpus_1.commit.op_class_0::SimdDiv            0      0.00%     75.17% # Class of committed instruction
system.switch_cpus_1.commit.op_class_0::SimdSqrt            0      0.00%     75.17% # Class of committed instruction
system.switch_cpus_1.commit.op_class_0::SimdFloatAdd     49302762      2.63%     77.80% # Class of committed instruction
system.switch_cpus_1.commit.op_class_0::SimdFloatAlu            0      0.00%     77.80% # Class of committed instruction
system.switch_cpus_1.commit.op_class_0::SimdFloatCmp            0      0.00%     77.80% # Class of committed instruction
system.switch_cpus_1.commit.op_class_0::SimdFloatCvt     35917538      1.92%     79.72% # Class of committed instruction
system.switch_cpus_1.commit.op_class_0::SimdFloatDiv      1922135      0.10%     79.82% # Class of committed instruction
system.switch_cpus_1.commit.op_class_0::SimdFloatMisc            0      0.00%     79.82% # Class of committed instruction
system.switch_cpus_1.commit.op_class_0::SimdFloatMult     22831089      1.22%     81.04% # Class of committed instruction
system.switch_cpus_1.commit.op_class_0::SimdFloatMultAcc            0      0.00%     81.04% # Class of committed instruction
system.switch_cpus_1.commit.op_class_0::SimdFloatSqrt            0      0.00%     81.04% # Class of committed instruction
system.switch_cpus_1.commit.op_class_0::SimdReduceAdd            0      0.00%     81.04% # Class of committed instruction
system.switch_cpus_1.commit.op_class_0::SimdReduceAlu            0      0.00%     81.04% # Class of committed instruction
system.switch_cpus_1.commit.op_class_0::SimdReduceCmp            0      0.00%     81.04% # Class of committed instruction
system.switch_cpus_1.commit.op_class_0::SimdFloatReduceAdd            0      0.00%     81.04% # Class of committed instruction
system.switch_cpus_1.commit.op_class_0::SimdFloatReduceCmp            0      0.00%     81.04% # Class of committed instruction
system.switch_cpus_1.commit.op_class_0::SimdAes            0      0.00%     81.04% # Class of committed instruction
system.switch_cpus_1.commit.op_class_0::SimdAesMix            0      0.00%     81.04% # Class of committed instruction
system.switch_cpus_1.commit.op_class_0::SimdSha1Hash            0      0.00%     81.04% # Class of committed instruction
system.switch_cpus_1.commit.op_class_0::SimdSha1Hash2            0      0.00%     81.04% # Class of committed instruction
system.switch_cpus_1.commit.op_class_0::SimdSha256Hash            0      0.00%     81.04% # Class of committed instruction
system.switch_cpus_1.commit.op_class_0::SimdSha256Hash2            0      0.00%     81.04% # Class of committed instruction
system.switch_cpus_1.commit.op_class_0::SimdShaSigma2            0      0.00%     81.04% # Class of committed instruction
system.switch_cpus_1.commit.op_class_0::SimdShaSigma3            0      0.00%     81.04% # Class of committed instruction
system.switch_cpus_1.commit.op_class_0::SimdPredAlu            0      0.00%     81.04% # Class of committed instruction
system.switch_cpus_1.commit.op_class_0::MemRead    180281746      9.63%     90.67% # Class of committed instruction
system.switch_cpus_1.commit.op_class_0::MemWrite    107339072      5.73%     96.40% # Class of committed instruction
system.switch_cpus_1.commit.op_class_0::FloatMemRead     58241360      3.11%     99.51% # Class of committed instruction
system.switch_cpus_1.commit.op_class_0::FloatMemWrite      9193132      0.49%    100.00% # Class of committed instruction
system.switch_cpus_1.commit.op_class_0::IprAccess            0      0.00%    100.00% # Class of committed instruction
system.switch_cpus_1.commit.op_class_0::InstPrefetch            0      0.00%    100.00% # Class of committed instruction
system.switch_cpus_1.commit.op_class_0::total   1872566051                       # Class of committed instruction
system.switch_cpus_1.commit.refs            355055310                       # Number of memory references committed
system.switch_cpus_1.commit.swp_count               0                       # Number of s/w prefetches committed
system.switch_cpus_1.commit.vec_insts               0                       # Number of committed Vector instructions.
system.switch_cpus_1.committedInsts        1000000002                       # Number of Instructions Simulated
system.switch_cpus_1.committedOps          1872566051                       # Number of Ops (including micro ops) Simulated
system.switch_cpus_1.cpi                     0.603588                       # CPI: Cycles Per Instruction
system.switch_cpus_1.cpi_total               0.603588                       # CPI: Total CPI of All Threads
system.switch_cpus_1.decode.BlockedCycles    201181803                       # Number of cycles decode is blocked
system.switch_cpus_1.decode.DecodedInsts   2394756855                       # Number of instructions handled by decode
system.switch_cpus_1.decode.IdleCycles       52615830                       # Number of cycles decode is idle
system.switch_cpus_1.decode.RunCycles       294640789                       # Number of cycles decode is running
system.switch_cpus_1.decode.SquashCycles      8549971                       # Number of cycles decode is squashing
system.switch_cpus_1.decode.UnblockCycles     46353450                       # Number of cycles decode is unblocking
system.switch_cpus_1.dtb.rdAccesses         266339317                       # TLB accesses on read requests
system.switch_cpus_1.dtb.rdMisses              609105                       # TLB misses on read requests
system.switch_cpus_1.dtb.wrAccesses         127620432                       # TLB accesses on write requests
system.switch_cpus_1.dtb.wrMisses              360647                       # TLB misses on write requests
system.switch_cpus_1.fetch.Branches         229614853                       # Number of branches that fetch encountered
system.switch_cpus_1.fetch.CacheLines       180573133                       # Number of cache lines fetched
system.switch_cpus_1.fetch.Cycles           576680684                       # Number of cycles fetch has run and was not squashing or blocked
system.switch_cpus_1.fetch.IcacheSquashes       320011                       # Number of outstanding Icache misses that were squashed
system.switch_cpus_1.fetch.IcacheWaitRetryStallCycles          679                       # Number of stall cycles due to full MSHR
system.switch_cpus_1.fetch.Insts           1345564664                       # Number of instructions fetch has processed
system.switch_cpus_1.fetch.MiscStallCycles         8238                       # Number of cycles fetch has spent waiting on interrupts, or bad addresses, or out of MSHRs
system.switch_cpus_1.fetch.PendingTrapStallCycles        42017                       # Number of stall cycles due to pending traps
system.switch_cpus_1.fetch.SquashCycles      17099942                       # Number of cycles fetch has spent squashing
system.switch_cpus_1.fetch.branchRate        0.380416                       # Number of branch fetches per cycle
system.switch_cpus_1.fetch.icacheStallCycles     18060262                       # Number of cycles fetch is stalled on an Icache miss
system.switch_cpus_1.fetch.predictedBranches    100566408                       # Number of branches that fetch has predicted taken
system.switch_cpus_1.fetch.rate              2.229276                       # Number of inst fetches per cycle
system.switch_cpus_1.fetch.rateDist::samples    603341851                       # Number of instructions fetched each cycle (Total)
system.switch_cpus_1.fetch.rateDist::mean     4.176181                       # Number of instructions fetched each cycle (Total)
system.switch_cpus_1.fetch.rateDist::stdev     3.516743                       # Number of instructions fetched each cycle (Total)
system.switch_cpus_1.fetch.rateDist::underflows            0      0.00%      0.00% # Number of instructions fetched each cycle (Total)
system.switch_cpus_1.fetch.rateDist::0      193628684     32.09%     32.09% # Number of instructions fetched each cycle (Total)
system.switch_cpus_1.fetch.rateDist::1       33417066      5.54%     37.63% # Number of instructions fetched each cycle (Total)
system.switch_cpus_1.fetch.rateDist::2       16677539      2.76%     40.40% # Number of instructions fetched each cycle (Total)
system.switch_cpus_1.fetch.rateDist::3       34969451      5.80%     46.19% # Number of instructions fetched each cycle (Total)
system.switch_cpus_1.fetch.rateDist::4       28528685      4.73%     50.92% # Number of instructions fetched each cycle (Total)
system.switch_cpus_1.fetch.rateDist::5       24049496      3.99%     54.91% # Number of instructions fetched each cycle (Total)
system.switch_cpus_1.fetch.rateDist::6       21744404      3.60%     58.51% # Number of instructions fetched each cycle (Total)
system.switch_cpus_1.fetch.rateDist::7       19456604      3.22%     61.73% # Number of instructions fetched each cycle (Total)
system.switch_cpus_1.fetch.rateDist::8      230869922     38.27%    100.00% # Number of instructions fetched each cycle (Total)
system.switch_cpus_1.fetch.rateDist::overflows            0      0.00%    100.00% # Number of instructions fetched each cycle (Total)
system.switch_cpus_1.fetch.rateDist::min_value            0                       # Number of instructions fetched each cycle (Total)
system.switch_cpus_1.fetch.rateDist::max_value            8                       # Number of instructions fetched each cycle (Total)
system.switch_cpus_1.fetch.rateDist::total    603341851                       # Number of instructions fetched each cycle (Total)
system.switch_cpus_1.fp_regfile_reads       597177009                       # number of floating regfile reads
system.switch_cpus_1.fp_regfile_writes      353456906                       # number of floating regfile writes
system.switch_cpus_1.idleCycles                246442                       # Total number of cycles that the CPU has spent unscheduled due to idling
system.switch_cpus_1.iew.branchMispredicts     11489910                       # Number of branch mispredicts detected at execute
system.switch_cpus_1.iew.exec_branches      183014320                       # Number of branches executed
system.switch_cpus_1.iew.exec_nop                   0                       # number of nop insts executed
system.switch_cpus_1.iew.exec_rate           3.438870                       # Inst execution rate
system.switch_cpus_1.iew.exec_refs          394635402                       # number of memory reference insts executed
system.switch_cpus_1.iew.exec_stores        127612918                       # Number of stores executed
system.switch_cpus_1.iew.exec_swp                   0                       # number of swp insts executed
system.switch_cpus_1.iew.iewBlockCycles      91073650                       # Number of cycles IEW is blocking
system.switch_cpus_1.iew.iewDispLoadInsts    288045169                       # Number of dispatched load instructions
system.switch_cpus_1.iew.iewDispNonSpecInsts       158988                       # Number of dispatched non-speculative instructions
system.switch_cpus_1.iew.iewDispSquashedInsts       212335                       # Number of squashed instructions skipped by dispatch
system.switch_cpus_1.iew.iewDispStoreInsts    141621029                       # Number of dispatched store instructions
system.switch_cpus_1.iew.iewDispatchedInsts   2247121931                       # Number of instructions dispatched to IQ
system.switch_cpus_1.iew.iewExecLoadInsts    267022484                       # Number of load instructions executed
system.switch_cpus_1.iew.iewExecSquashedInsts     20408969                       # Number of squashed instructions skipped in execute
system.switch_cpus_1.iew.iewExecutedInsts   2075661551                       # Number of executed instructions
system.switch_cpus_1.iew.iewIQFullEvents       254412                       # Number of times the IQ has become full, causing a stall
system.switch_cpus_1.iew.iewIdleCycles              0                       # Number of cycles IEW is idle
system.switch_cpus_1.iew.iewLSQFullEvents      1130754                       # Number of times the LSQ has become full, causing a stall
system.switch_cpus_1.iew.iewSquashCycles      8549971                       # Number of cycles IEW is squashing
system.switch_cpus_1.iew.iewUnblockCycles      1726906                       # Number of cycles IEW is unblocking
system.switch_cpus_1.iew.lsq.thread0.blockedLoads            0                       # Number of blocked loads due to partial load-store forwarding
system.switch_cpus_1.iew.lsq.thread0.cacheBlocked       207178                       # Number of times an access to memory failed due to the cache being blocked
system.switch_cpus_1.iew.lsq.thread0.forwLoads     22995790                       # Number of loads that had data forwarded from stores
system.switch_cpus_1.iew.lsq.thread0.ignoredResponses        53232                       # Number of memory responses ignored because the instruction is squashed
system.switch_cpus_1.iew.lsq.thread0.invAddrLoads            0                       # Number of loads ignored due to an invalid address
system.switch_cpus_1.iew.lsq.thread0.invAddrSwpfs            0                       # Number of software prefetches ignored due to an invalid address
system.switch_cpus_1.iew.lsq.thread0.memOrderViolation        19504                       # Number of memory ordering violations
system.switch_cpus_1.iew.lsq.thread0.rescheduledLoads         1622                       # Number of loads that were rescheduled
system.switch_cpus_1.iew.lsq.thread0.squashedLoads     49522060                       # Number of loads squashed
system.switch_cpus_1.iew.lsq.thread0.squashedStores     25088821                       # Number of stores squashed
system.switch_cpus_1.iew.memOrderViolationEvents        19504                       # Number of memory order violations
system.switch_cpus_1.iew.predictedNotTakenIncorrect     10436193                       # Number of branches that were predicted not taken incorrectly
system.switch_cpus_1.iew.predictedTakenIncorrect      1053717                       # Number of branches that were predicted taken incorrectly
system.switch_cpus_1.iew.wb_consumers      2600426535                       # num instructions consuming a value
system.switch_cpus_1.iew.wb_count          2068265901                       # cumulative count of insts written-back
system.switch_cpus_1.iew.wb_fanout           0.598664                       # average fanout of values written-back
system.switch_cpus_1.iew.wb_producers      1556780807                       # num instructions producing a value
system.switch_cpus_1.iew.wb_rate             3.426617                       # insts written-back per cycle
system.switch_cpus_1.iew.wb_sent           2073847075                       # cumulative count of insts sent to commit
system.switch_cpus_1.int_regfile_reads     2622356153                       # number of integer regfile reads
system.switch_cpus_1.int_regfile_writes    1404429983                       # number of integer regfile writes
system.switch_cpus_1.ipc                     1.656758                       # IPC: Instructions Per Cycle
system.switch_cpus_1.ipc_total               1.656758                       # IPC: Total IPC of All Threads
system.switch_cpus_1.iq.FU_type_0::No_OpClass      6982142      0.33%      0.33% # Type of FU issued
system.switch_cpus_1.iq.FU_type_0::IntAlu   1439610188     68.68%     69.01% # Type of FU issued
system.switch_cpus_1.iq.FU_type_0::IntMult      1140600      0.05%     69.07% # Type of FU issued
system.switch_cpus_1.iq.FU_type_0::IntDiv      6625815      0.32%     69.39% # Type of FU issued
system.switch_cpus_1.iq.FU_type_0::FloatAdd     51712756      2.47%     71.85% # Type of FU issued
system.switch_cpus_1.iq.FU_type_0::FloatCmp            0      0.00%     71.85% # Type of FU issued
system.switch_cpus_1.iq.FU_type_0::FloatCvt          905      0.00%     71.85% # Type of FU issued
system.switch_cpus_1.iq.FU_type_0::FloatMult            0      0.00%     71.85% # Type of FU issued
system.switch_cpus_1.iq.FU_type_0::FloatMultAcc            0      0.00%     71.85% # Type of FU issued
system.switch_cpus_1.iq.FU_type_0::FloatDiv            0      0.00%     71.85% # Type of FU issued
system.switch_cpus_1.iq.FU_type_0::FloatMisc            0      0.00%     71.85% # Type of FU issued
system.switch_cpus_1.iq.FU_type_0::FloatSqrt            0      0.00%     71.85% # Type of FU issued
system.switch_cpus_1.iq.FU_type_0::SimdAdd          173      0.00%     71.85% # Type of FU issued
system.switch_cpus_1.iq.FU_type_0::SimdAddAcc            0      0.00%     71.85% # Type of FU issued
system.switch_cpus_1.iq.FU_type_0::SimdAlu     43949374      2.10%     73.95% # Type of FU issued
system.switch_cpus_1.iq.FU_type_0::SimdCmp       824739      0.04%     73.99% # Type of FU issued
system.switch_cpus_1.iq.FU_type_0::SimdCvt      5460464      0.26%     74.25% # Type of FU issued
system.switch_cpus_1.iq.FU_type_0::SimdMisc     23526798      1.12%     75.37% # Type of FU issued
system.switch_cpus_1.iq.FU_type_0::SimdMult            0      0.00%     75.37% # Type of FU issued
system.switch_cpus_1.iq.FU_type_0::SimdMultAcc            0      0.00%     75.37% # Type of FU issued
system.switch_cpus_1.iq.FU_type_0::SimdShift          154      0.00%     75.37% # Type of FU issued
system.switch_cpus_1.iq.FU_type_0::SimdShiftAcc            0      0.00%     75.37% # Type of FU issued
system.switch_cpus_1.iq.FU_type_0::SimdDiv            0      0.00%     75.37% # Type of FU issued
system.switch_cpus_1.iq.FU_type_0::SimdSqrt            0      0.00%     75.37% # Type of FU issued
system.switch_cpus_1.iq.FU_type_0::SimdFloatAdd     50539859      2.41%     77.78% # Type of FU issued
system.switch_cpus_1.iq.FU_type_0::SimdFloatAlu            0      0.00%     77.78% # Type of FU issued
system.switch_cpus_1.iq.FU_type_0::SimdFloatCmp            0      0.00%     77.78% # Type of FU issued
system.switch_cpus_1.iq.FU_type_0::SimdFloatCvt     36890240      1.76%     79.54% # Type of FU issued
system.switch_cpus_1.iq.FU_type_0::SimdFloatDiv      1922263      0.09%     79.63% # Type of FU issued
system.switch_cpus_1.iq.FU_type_0::SimdFloatMisc            0      0.00%     79.63% # Type of FU issued
system.switch_cpus_1.iq.FU_type_0::SimdFloatMult     24345603      1.16%     80.80% # Type of FU issued
system.switch_cpus_1.iq.FU_type_0::SimdFloatMultAcc            0      0.00%     80.80% # Type of FU issued
system.switch_cpus_1.iq.FU_type_0::SimdFloatSqrt            0      0.00%     80.80% # Type of FU issued
system.switch_cpus_1.iq.FU_type_0::SimdReduceAdd            0      0.00%     80.80% # Type of FU issued
system.switch_cpus_1.iq.FU_type_0::SimdReduceAlu            0      0.00%     80.80% # Type of FU issued
system.switch_cpus_1.iq.FU_type_0::SimdReduceCmp            0      0.00%     80.80% # Type of FU issued
system.switch_cpus_1.iq.FU_type_0::SimdFloatReduceAdd            0      0.00%     80.80% # Type of FU issued
system.switch_cpus_1.iq.FU_type_0::SimdFloatReduceCmp            0      0.00%     80.80% # Type of FU issued
system.switch_cpus_1.iq.FU_type_0::SimdAes            0      0.00%     80.80% # Type of FU issued
system.switch_cpus_1.iq.FU_type_0::SimdAesMix            0      0.00%     80.80% # Type of FU issued
system.switch_cpus_1.iq.FU_type_0::SimdSha1Hash            0      0.00%     80.80% # Type of FU issued
system.switch_cpus_1.iq.FU_type_0::SimdSha1Hash2            0      0.00%     80.80% # Type of FU issued
system.switch_cpus_1.iq.FU_type_0::SimdSha256Hash            0      0.00%     80.80% # Type of FU issued
system.switch_cpus_1.iq.FU_type_0::SimdSha256Hash2            0      0.00%     80.80% # Type of FU issued
system.switch_cpus_1.iq.FU_type_0::SimdShaSigma2            0      0.00%     80.80% # Type of FU issued
system.switch_cpus_1.iq.FU_type_0::SimdShaSigma3            0      0.00%     80.80% # Type of FU issued
system.switch_cpus_1.iq.FU_type_0::SimdPredAlu            0      0.00%     80.80% # Type of FU issued
system.switch_cpus_1.iq.FU_type_0::MemRead    203310590      9.70%     90.50% # Type of FU issued
system.switch_cpus_1.iq.FU_type_0::MemWrite    119886671      5.72%     96.21% # Type of FU issued
system.switch_cpus_1.iq.FU_type_0::FloatMemRead     68086155      3.25%     99.46% # Type of FU issued
system.switch_cpus_1.iq.FU_type_0::FloatMemWrite     11255038      0.54%    100.00% # Type of FU issued
system.switch_cpus_1.iq.FU_type_0::IprAccess            0      0.00%    100.00% # Type of FU issued
system.switch_cpus_1.iq.FU_type_0::InstPrefetch            0      0.00%    100.00% # Type of FU issued
system.switch_cpus_1.iq.FU_type_0::total   2096070527                       # Type of FU issued
system.switch_cpus_1.iq.fp_alu_accesses     396436255                       # Number of floating point alu accesses
system.switch_cpus_1.iq.fp_inst_queue_reads    790396644                       # Number of floating instruction queue reads
system.switch_cpus_1.iq.fp_inst_queue_wakeup_accesses    391765867                       # Number of floating instruction queue wakeup accesses
system.switch_cpus_1.iq.fp_inst_queue_writes    517994186                       # Number of floating instruction queue writes
system.switch_cpus_1.iq.fu_busy_cnt          53576732                       # FU busy when requested
system.switch_cpus_1.iq.fu_busy_rate         0.025561                       # FU busy rate (busy events/executed inst)
system.switch_cpus_1.iq.fu_full::No_OpClass            0      0.00%      0.00% # attempts to use FU when none available
system.switch_cpus_1.iq.fu_full::IntAlu      45615301     85.14%     85.14% # attempts to use FU when none available
system.switch_cpus_1.iq.fu_full::IntMult            0      0.00%     85.14% # attempts to use FU when none available
system.switch_cpus_1.iq.fu_full::IntDiv             0      0.00%     85.14% # attempts to use FU when none available
system.switch_cpus_1.iq.fu_full::FloatAdd            0      0.00%     85.14% # attempts to use FU when none available
system.switch_cpus_1.iq.fu_full::FloatCmp            0      0.00%     85.14% # attempts to use FU when none available
system.switch_cpus_1.iq.fu_full::FloatCvt            2      0.00%     85.14% # attempts to use FU when none available
system.switch_cpus_1.iq.fu_full::FloatMult            0      0.00%     85.14% # attempts to use FU when none available
system.switch_cpus_1.iq.fu_full::FloatMultAcc            0      0.00%     85.14% # attempts to use FU when none available
system.switch_cpus_1.iq.fu_full::FloatDiv            0      0.00%     85.14% # attempts to use FU when none available
system.switch_cpus_1.iq.fu_full::FloatMisc            0      0.00%     85.14% # attempts to use FU when none available
system.switch_cpus_1.iq.fu_full::FloatSqrt            0      0.00%     85.14% # attempts to use FU when none available
system.switch_cpus_1.iq.fu_full::SimdAdd            0      0.00%     85.14% # attempts to use FU when none available
system.switch_cpus_1.iq.fu_full::SimdAddAcc            0      0.00%     85.14% # attempts to use FU when none available
system.switch_cpus_1.iq.fu_full::SimdAlu       154270      0.29%     85.43% # attempts to use FU when none available
system.switch_cpus_1.iq.fu_full::SimdCmp        33531      0.06%     85.49% # attempts to use FU when none available
system.switch_cpus_1.iq.fu_full::SimdCvt       573125      1.07%     86.56% # attempts to use FU when none available
system.switch_cpus_1.iq.fu_full::SimdMisc       158049      0.29%     86.86% # attempts to use FU when none available
system.switch_cpus_1.iq.fu_full::SimdMult            0      0.00%     86.86% # attempts to use FU when none available
system.switch_cpus_1.iq.fu_full::SimdMultAcc            0      0.00%     86.86% # attempts to use FU when none available
system.switch_cpus_1.iq.fu_full::SimdShift            0      0.00%     86.86% # attempts to use FU when none available
system.switch_cpus_1.iq.fu_full::SimdShiftAcc            0      0.00%     86.86% # attempts to use FU when none available
system.switch_cpus_1.iq.fu_full::SimdDiv            0      0.00%     86.86% # attempts to use FU when none available
system.switch_cpus_1.iq.fu_full::SimdSqrt            0      0.00%     86.86% # attempts to use FU when none available
system.switch_cpus_1.iq.fu_full::SimdFloatAdd        27262      0.05%     86.91% # attempts to use FU when none available
system.switch_cpus_1.iq.fu_full::SimdFloatAlu            0      0.00%     86.91% # attempts to use FU when none available
system.switch_cpus_1.iq.fu_full::SimdFloatCmp            0      0.00%     86.91% # attempts to use FU when none available
system.switch_cpus_1.iq.fu_full::SimdFloatCvt       443386      0.83%     87.73% # attempts to use FU when none available
system.switch_cpus_1.iq.fu_full::SimdFloatDiv            0      0.00%     87.73% # attempts to use FU when none available
system.switch_cpus_1.iq.fu_full::SimdFloatMisc            0      0.00%     87.73% # attempts to use FU when none available
system.switch_cpus_1.iq.fu_full::SimdFloatMult         4337      0.01%     87.74% # attempts to use FU when none available
system.switch_cpus_1.iq.fu_full::SimdFloatMultAcc            0      0.00%     87.74% # attempts to use FU when none available
system.switch_cpus_1.iq.fu_full::SimdFloatSqrt            0      0.00%     87.74% # attempts to use FU when none available
system.switch_cpus_1.iq.fu_full::SimdReduceAdd            0      0.00%     87.74% # attempts to use FU when none available
system.switch_cpus_1.iq.fu_full::SimdReduceAlu            0      0.00%     87.74% # attempts to use FU when none available
system.switch_cpus_1.iq.fu_full::SimdReduceCmp            0      0.00%     87.74% # attempts to use FU when none available
system.switch_cpus_1.iq.fu_full::SimdFloatReduceAdd            0      0.00%     87.74% # attempts to use FU when none available
system.switch_cpus_1.iq.fu_full::SimdFloatReduceCmp            0      0.00%     87.74% # attempts to use FU when none available
system.switch_cpus_1.iq.fu_full::SimdAes            0      0.00%     87.74% # attempts to use FU when none available
system.switch_cpus_1.iq.fu_full::SimdAesMix            0      0.00%     87.74% # attempts to use FU when none available
system.switch_cpus_1.iq.fu_full::SimdSha1Hash            0      0.00%     87.74% # attempts to use FU when none available
system.switch_cpus_1.iq.fu_full::SimdSha1Hash2            0      0.00%     87.74% # attempts to use FU when none available
system.switch_cpus_1.iq.fu_full::SimdSha256Hash            0      0.00%     87.74% # attempts to use FU when none available
system.switch_cpus_1.iq.fu_full::SimdSha256Hash2            0      0.00%     87.74% # attempts to use FU when none available
system.switch_cpus_1.iq.fu_full::SimdShaSigma2            0      0.00%     87.74% # attempts to use FU when none available
system.switch_cpus_1.iq.fu_full::SimdShaSigma3            0      0.00%     87.74% # attempts to use FU when none available
system.switch_cpus_1.iq.fu_full::SimdPredAlu            0      0.00%     87.74% # attempts to use FU when none available
system.switch_cpus_1.iq.fu_full::MemRead      3171317      5.92%     93.66% # attempts to use FU when none available
system.switch_cpus_1.iq.fu_full::MemWrite      2117023      3.95%     97.61% # attempts to use FU when none available
system.switch_cpus_1.iq.fu_full::FloatMemRead       706680      1.32%     98.93% # attempts to use FU when none available
system.switch_cpus_1.iq.fu_full::FloatMemWrite       572449      1.07%    100.00% # attempts to use FU when none available
system.switch_cpus_1.iq.fu_full::IprAccess            0      0.00%    100.00% # attempts to use FU when none available
system.switch_cpus_1.iq.fu_full::InstPrefetch            0      0.00%    100.00% # attempts to use FU when none available
system.switch_cpus_1.iq.int_alu_accesses   1746228862                       # Number of integer alu accesses
system.switch_cpus_1.iq.int_inst_queue_reads   4068184047                       # Number of integer instruction queue reads
system.switch_cpus_1.iq.int_inst_queue_wakeup_accesses   1676500034                       # Number of integer instruction queue wakeup accesses
system.switch_cpus_1.iq.int_inst_queue_writes   2103701286                       # Number of integer instruction queue writes
system.switch_cpus_1.iq.iqInstsAdded       2246544597                       # Number of instructions added to the IQ (excludes non-spec)
system.switch_cpus_1.iq.iqInstsIssued      2096070527                       # Number of instructions issued
system.switch_cpus_1.iq.iqNonSpecInstsAdded       577334                       # Number of non-speculative instructions added to the IQ
system.switch_cpus_1.iq.iqSquashedInstsExamined    374555839                       # Number of squashed instructions iterated over during squash; mainly for profiling
system.switch_cpus_1.iq.iqSquashedInstsIssued      9521061                       # Number of squashed instructions issued
system.switch_cpus_1.iq.iqSquashedNonSpecRemoved       571092                       # Number of squashed non-spec instructions that were removed
system.switch_cpus_1.iq.iqSquashedOperandsExamined    528149444                       # Number of squashed operands that are examined and possibly removed from graph
system.switch_cpus_1.iq.issued_per_cycle::samples    603341851                       # Number of insts issued each cycle
system.switch_cpus_1.iq.issued_per_cycle::mean     3.474101                       # Number of insts issued each cycle
system.switch_cpus_1.iq.issued_per_cycle::stdev     2.973199                       # Number of insts issued each cycle
system.switch_cpus_1.iq.issued_per_cycle::underflows            0      0.00%      0.00% # Number of insts issued each cycle
system.switch_cpus_1.iq.issued_per_cycle::0    200645566     33.26%     33.26% # Number of insts issued each cycle
system.switch_cpus_1.iq.issued_per_cycle::1     20041468      3.32%     36.58% # Number of insts issued each cycle
system.switch_cpus_1.iq.issued_per_cycle::2     32151956      5.33%     41.91% # Number of insts issued each cycle
system.switch_cpus_1.iq.issued_per_cycle::3     41420475      6.87%     48.77% # Number of insts issued each cycle
system.switch_cpus_1.iq.issued_per_cycle::4     49495351      8.20%     56.98% # Number of insts issued each cycle
system.switch_cpus_1.iq.issued_per_cycle::5     57718081      9.57%     66.54% # Number of insts issued each cycle
system.switch_cpus_1.iq.issued_per_cycle::6     75210823     12.47%     79.01% # Number of insts issued each cycle
system.switch_cpus_1.iq.issued_per_cycle::7     63638073     10.55%     89.55% # Number of insts issued each cycle
system.switch_cpus_1.iq.issued_per_cycle::8     63020058     10.45%    100.00% # Number of insts issued each cycle
system.switch_cpus_1.iq.issued_per_cycle::overflows            0      0.00%    100.00% # Number of insts issued each cycle
system.switch_cpus_1.iq.issued_per_cycle::min_value            0                       # Number of insts issued each cycle
system.switch_cpus_1.iq.issued_per_cycle::max_value            8                       # Number of insts issued each cycle
system.switch_cpus_1.iq.issued_per_cycle::total    603341851                       # Number of insts issued each cycle
system.switch_cpus_1.iq.rate                 3.472683                       # Inst issue rate
system.switch_cpus_1.iq.vec_alu_accesses            0                       # Number of vector alu accesses
system.switch_cpus_1.iq.vec_inst_queue_reads            0                       # Number of vector instruction queue reads
system.switch_cpus_1.iq.vec_inst_queue_wakeup_accesses            0                       # Number of vector instruction queue wakeup accesses
system.switch_cpus_1.iq.vec_inst_queue_writes            0                       # Number of vector instruction queue writes
system.switch_cpus_1.itb.rdAccesses                 0                       # TLB accesses on read requests
system.switch_cpus_1.itb.rdMisses                   0                       # TLB misses on read requests
system.switch_cpus_1.itb.wrAccesses         180583360                       # TLB accesses on write requests
system.switch_cpus_1.itb.wrMisses               10433                       # TLB misses on write requests
system.switch_cpus_1.memDep0.conflictingLoads     12136258                       # Number of conflicting loads.
system.switch_cpus_1.memDep0.conflictingStores      5302850                       # Number of conflicting stores.
system.switch_cpus_1.memDep0.insertedLoads    288045169                       # Number of loads inserted to the mem dependence unit.
system.switch_cpus_1.memDep0.insertedStores    141621029                       # Number of stores inserted to the mem dependence unit.
system.switch_cpus_1.misc_regfile_reads     816326294                       # number of misc regfile reads
system.switch_cpus_1.misc_regfile_writes           63                       # number of misc regfile writes
system.switch_cpus_1.numCycles              603588293                       # number of cpu cycles simulated
system.switch_cpus_1.numWorkItemsCompleted            0                       # number of work items this cpu completed
system.switch_cpus_1.numWorkItemsStarted            0                       # number of work items this cpu started
system.switch_cpus_1.rename.BlockCycles     112838197                       # Number of cycles rename is blocking
system.switch_cpus_1.rename.CommittedMaps   2112960707                       # Number of HB maps that are committed
system.switch_cpus_1.rename.IQFullEvents     25858608                       # Number of times rename has blocked due to IQ full
system.switch_cpus_1.rename.IdleCycles       70430807                       # Number of cycles rename is idle
system.switch_cpus_1.rename.LQFullEvents     25358491                       # Number of times rename has blocked due to LQ full
system.switch_cpus_1.rename.ROBFullEvents      2931036                       # Number of times rename has blocked due to ROB full
system.switch_cpus_1.rename.RenameLookups   5713492840                       # Number of register rename lookups that rename has made
system.switch_cpus_1.rename.RenamedInsts   2341816547                       # Number of instructions processed by rename
system.switch_cpus_1.rename.RenamedOperands   2617724423                       # Number of destination operands rename has renamed
system.switch_cpus_1.rename.RunCycles       322314423                       # Number of cycles rename is running
system.switch_cpus_1.rename.SQFullEvents     26997688                       # Number of times rename has blocked due to SQ full
system.switch_cpus_1.rename.SquashCycles      8549971                       # Number of cycles rename is squashing
system.switch_cpus_1.rename.UnblockCycles     89176128                       # Number of cycles rename is unblocking
system.switch_cpus_1.rename.UndoneMaps      504763636                       # Number of HB maps that are undone due to squashing
system.switch_cpus_1.rename.fp_rename_lookups    692925419                       # Number of floating rename lookups
system.switch_cpus_1.rename.int_rename_lookups   3023098204                       # Number of integer rename lookups
system.switch_cpus_1.rename.serializeStallCycles        32318                       # count of cycles rename stalled for serializing inst
system.switch_cpus_1.rename.serializingInsts         3550                       # count of serializing insts renamed
system.switch_cpus_1.rename.skidInsts       122291536                       # count of insts added to the skid buffer
system.switch_cpus_1.rename.tempSerializingInsts         4367                       # count of temporary serializing insts renamed
system.switch_cpus_1.rob.rob_reads         2638368230                       # The number of ROB reads
system.switch_cpus_1.rob.rob_writes        4533984622                       # The number of ROB writes
system.switch_cpus_1.timesIdled                  7176                       # Number of times that the entire CPU went into an idle state and unscheduled itself
system.tol2bus.snoop_filter.hit_multi_requests           79                       # Number of requests hitting in the snoop filter with multiple (>1) holders of the requested data.
system.tol2bus.snoop_filter.hit_multi_snoops            3                       # Number of snoops hitting in the snoop filter with multiple (>1) holders of the requested data.
system.tol2bus.snoop_filter.hit_single_requests      2229205                       # Number of requests hitting in the snoop filter with a single holder of the requested data.
system.tol2bus.snoop_filter.hit_single_snoops        43759                       # Number of snoops hitting in the snoop filter with a single holder of the requested data.
system.tol2bus.snoop_filter.tot_requests      4454796                       # Total number of requests made to the snoop filter.
system.tol2bus.snoop_filter.tot_snoops          43762                       # Total number of snoops made to the snoop filter.
system.tol3bus.snoop_filter.hit_multi_requests            0                       # Number of requests hitting in the snoop filter with multiple (>1) holders of the requested data.
system.tol3bus.snoop_filter.hit_multi_snoops            0                       # Number of snoops hitting in the snoop filter with multiple (>1) holders of the requested data.
system.tol3bus.snoop_filter.hit_single_requests      1181127                       # Number of requests hitting in the snoop filter with a single holder of the requested data.
system.tol3bus.snoop_filter.hit_single_snoops       179763                       # Number of snoops hitting in the snoop filter with a single holder of the requested data.
system.tol3bus.snoop_filter.tot_requests      2361990                       # Total number of requests made to the snoop filter.
system.tol3bus.snoop_filter.tot_snoops         179763                       # Total number of snoops made to the snoop filter.
system.membus.trans_dist::ReadResp             912952                       # Transaction distribution
system.membus.trans_dist::WritebackDirty       327617                       # Transaction distribution
system.membus.trans_dist::CleanEvict           735240                       # Transaction distribution
system.membus.trans_dist::UpgradeReq                9                       # Transaction distribution
system.membus.trans_dist::ReadExReq            149834                       # Transaction distribution
system.membus.trans_dist::ReadExResp           149834                       # Transaction distribution
system.membus.trans_dist::ReadSharedReq        912952                       # Transaction distribution
system.membus.pkt_count_system.l3.mem_side::system.mem_ctrls.port      3188438                       # Packet count per connected master and slave (bytes)
system.membus.pkt_count_system.l3.mem_side::total      3188438                       # Packet count per connected master and slave (bytes)
system.membus.pkt_count::total                3188438                       # Packet count per connected master and slave (bytes)
system.membus.pkt_size_system.l3.mem_side::system.mem_ctrls.port     88985792                       # Cumulative packet size per connected master and slave (bytes)
system.membus.pkt_size_system.l3.mem_side::total     88985792                       # Cumulative packet size per connected master and slave (bytes)
system.membus.pkt_size::total                88985792                       # Cumulative packet size per connected master and slave (bytes)
system.membus.snoops                                0                       # Total snoops (count)
system.membus.snoopTraffic                          0                       # Total snoop traffic (bytes)
system.membus.snoop_fanout::samples           1062795                       # Request fanout histogram
system.membus.snoop_fanout::mean                    0                       # Request fanout histogram
system.membus.snoop_fanout::stdev                   0                       # Request fanout histogram
system.membus.snoop_fanout::underflows              0      0.00%      0.00% # Request fanout histogram
system.membus.snoop_fanout::0                 1062795    100.00%    100.00% # Request fanout histogram
system.membus.snoop_fanout::1                       0      0.00%    100.00% # Request fanout histogram
system.membus.snoop_fanout::overflows               0      0.00%    100.00% # Request fanout histogram
system.membus.snoop_fanout::min_value               0                       # Request fanout histogram
system.membus.snoop_fanout::max_value               0                       # Request fanout histogram
system.membus.snoop_fanout::total             1062795                       # Request fanout histogram
system.membus.reqLayer2.occupancy          3697634500                       # Layer occupancy (ticks)
system.membus.reqLayer2.utilization               1.2                       # Layer utilization (%)
system.membus.respLayer1.occupancy         5622536250                       # Layer occupancy (ticks)
system.membus.respLayer1.utilization              1.9                       # Layer utilization (%)
system.membus.power_state.pwrStateResidencyTicks::UNDEFINED 1528563639500                       # Cumulative time (in ticks) in various power states
system.switch_cpus_1.dtb.walker.power_state.pwrStateResidencyTicks::UNDEFINED 1528563639500                       # Cumulative time (in ticks) in various power states
system.switch_cpus_1.itb.walker.power_state.pwrStateResidencyTicks::UNDEFINED 1528563639500                       # Cumulative time (in ticks) in various power states
system.switch_cpus_1.power_state.pwrStateResidencyTicks::OFF 1528563639500                       # Cumulative time (in ticks) in various power states
system.switch_cpus.dtb.walker.power_state.pwrStateResidencyTicks::UNDEFINED 1528563639500                       # Cumulative time (in ticks) in various power states
system.switch_cpus.itb.walker.power_state.pwrStateResidencyTicks::UNDEFINED 1528563639500                       # Cumulative time (in ticks) in various power states
system.switch_cpus.power_state.numTransitions            1                       # Number of power state transitions
system.switch_cpus.power_state.pwrStateResidencyTicks::OFF 1528563639500                       # Cumulative time (in ticks) in various power states
system.tol2bus.trans_dist::ReadResp           2015549                       # Transaction distribution
system.tol2bus.trans_dist::WritebackDirty       818666                       # Transaction distribution
system.tol2bus.trans_dist::WritebackClean       927252                       # Transaction distribution
system.tol2bus.trans_dist::CleanEvict         1844257                       # Transaction distribution
system.tol2bus.trans_dist::UpgradeReq            3680                       # Transaction distribution
system.tol2bus.trans_dist::UpgradeResp           3680                       # Transaction distribution
system.tol2bus.trans_dist::ReadExReq           210021                       # Transaction distribution
system.tol2bus.trans_dist::ReadExResp          210021                       # Transaction distribution
system.tol2bus.trans_dist::ReadCleanReq        927276                       # Transaction distribution
system.tol2bus.trans_dist::ReadSharedReq      1088273                       # Transaction distribution
system.tol2bus.pkt_count_system.cpu.icache.mem_side::system.l2.cpu_side      2781781                       # Packet count per connected master and slave (bytes)
system.tol2bus.pkt_count_system.cpu.dcache.mem_side::system.l2.cpu_side      3902242                       # Packet count per connected master and slave (bytes)
system.tol2bus.pkt_count::total               6684023                       # Packet count per connected master and slave (bytes)
system.tol2bus.pkt_size_system.cpu.icache.mem_side::system.l2.cpu_side    118688320                       # Cumulative packet size per connected master and slave (bytes)
system.tol2bus.pkt_size_system.cpu.dcache.mem_side::system.l2.cpu_side    111205696                       # Cumulative packet size per connected master and slave (bytes)
system.tol2bus.pkt_size::total              229894016                       # Cumulative packet size per connected master and slave (bytes)
system.tol2bus.snoops                         1364652                       # Total snoops (count)
system.tol2bus.snoopTraffic                  24281216                       # Total snoop traffic (bytes)
system.tol2bus.snoop_fanout::samples          3593879                       # Request fanout histogram
system.tol2bus.snoop_fanout::mean            0.012200                       # Request fanout histogram
system.tol2bus.snoop_fanout::stdev           0.109787                       # Request fanout histogram
system.tol2bus.snoop_fanout::underflows             0      0.00%      0.00% # Request fanout histogram
system.tol2bus.snoop_fanout::0                3550035     98.78%     98.78% # Request fanout histogram
system.tol2bus.snoop_fanout::1                  43841      1.22%    100.00% # Request fanout histogram
system.tol2bus.snoop_fanout::2                      3      0.00%    100.00% # Request fanout histogram
system.tol2bus.snoop_fanout::3                      0      0.00%    100.00% # Request fanout histogram
system.tol2bus.snoop_fanout::4                      0      0.00%    100.00% # Request fanout histogram
system.tol2bus.snoop_fanout::overflows              0      0.00%    100.00% # Request fanout histogram
system.tol2bus.snoop_fanout::min_value              0                       # Request fanout histogram
system.tol2bus.snoop_fanout::max_value              2                       # Request fanout histogram
system.tol2bus.snoop_fanout::total            3593879                       # Request fanout histogram
system.tol2bus.reqLayer0.occupancy         3593945000                       # Layer occupancy (ticks)
system.tol2bus.reqLayer0.utilization              1.2                       # Layer utilization (%)
system.tol2bus.respLayer1.occupancy        1949303455                       # Layer occupancy (ticks)
system.tol2bus.respLayer1.utilization             0.6                       # Layer utilization (%)
system.tol2bus.respLayer0.occupancy        1390926974                       # Layer occupancy (ticks)
system.tol2bus.respLayer0.utilization             0.5                       # Layer utilization (%)
system.tol2bus.power_state.pwrStateResidencyTicks::UNDEFINED 1528563639500                       # Cumulative time (in ticks) in various power states
system.voltage_domain.voltage                       1                       # Voltage in Volts
system.clk_domain.clock                          1000                       # Clock period in ticks
system.l2.demand_hits::.switch_cpus_1.inst       923647                       # number of demand (read+write) hits
system.l2.demand_hits::.switch_cpus_1.data       121035                       # number of demand (read+write) hits
system.l2.demand_hits::total                  1044682                       # number of demand (read+write) hits
system.l2.overall_hits::.switch_cpus_1.inst       923647                       # number of overall hits
system.l2.overall_hits::.switch_cpus_1.data       121035                       # number of overall hits
system.l2.overall_hits::total                 1044682                       # number of overall hits
system.l2.demand_misses::.switch_cpus_1.inst         3606                       # number of demand (read+write) misses
system.l2.demand_misses::.switch_cpus_1.data      1177259                       # number of demand (read+write) misses
system.l2.demand_misses::total                1180865                       # number of demand (read+write) misses
system.l2.overall_misses::.switch_cpus_1.inst         3606                       # number of overall misses
system.l2.overall_misses::.switch_cpus_1.data      1177259                       # number of overall misses
system.l2.overall_misses::total               1180865                       # number of overall misses
system.l2.demand_miss_latency::.switch_cpus_1.inst    323108000                       # number of demand (read+write) miss cycles
system.l2.demand_miss_latency::.switch_cpus_1.data  98873478500                       # number of demand (read+write) miss cycles
system.l2.demand_miss_latency::total      99196586500                       # number of demand (read+write) miss cycles
system.l2.overall_miss_latency::.switch_cpus_1.inst    323108000                       # number of overall miss cycles
system.l2.overall_miss_latency::.switch_cpus_1.data  98873478500                       # number of overall miss cycles
system.l2.overall_miss_latency::total     99196586500                       # number of overall miss cycles
system.l2.demand_accesses::.switch_cpus_1.inst       927253                       # number of demand (read+write) accesses
system.l2.demand_accesses::.switch_cpus_1.data      1298294                       # number of demand (read+write) accesses
system.l2.demand_accesses::total              2225547                       # number of demand (read+write) accesses
system.l2.overall_accesses::.switch_cpus_1.inst       927253                       # number of overall (read+write) accesses
system.l2.overall_accesses::.switch_cpus_1.data      1298294                       # number of overall (read+write) accesses
system.l2.overall_accesses::total             2225547                       # number of overall (read+write) accesses
[...]
system.cpu.dcache.demand_avg_miss_latency::total 63216.451617                       # average overall miss latency
system.cpu.dcache.overall_avg_miss_latency::.switch_cpus.data 38145.682174                       # average overall miss latency
system.cpu.dcache.overall_avg_miss_latency::.switch_cpus_1.data 66558.530006                       # average overall miss latency
system.cpu.dcache.overall_avg_miss_latency::total 63210.396318                       # average overall miss latency
system.cpu.dcache.blocked_cycles::no_mshrs      8976080                       # number of cycles access was blocked
system.cpu.dcache.blocked_cycles::no_targets         5239                       # number of cycles access was blocked
system.cpu.dcache.blocked::no_mshrs            227497                       # number of cycles access was blocked
system.cpu.dcache.blocked::no_targets              41                       # number of cycles access was blocked
system.cpu.dcache.avg_blocked_cycles::no_mshrs    39.455817                       # average number of cycles each access was blocked
system.cpu.dcache.avg_blocked_cycles::no_targets   127.780488                       # average number of cycles each access was blocked
system.cpu.dcache.writebacks::.writebacks       768270                       # number of writebacks
system.cpu.dcache.writebacks::total            768270                       # number of writebacks
system.cpu.dcache.demand_mshr_hits::.switch_cpus_1.data      5354240                       # number of demand (read+write) MSHR hits
system.cpu.dcache.demand_mshr_hits::total      5354240                       # number of demand (read+write) MSHR hits
system.cpu.dcache.overall_mshr_hits::.switch_cpus_1.data      5354240                       # number of overall MSHR hits
system.cpu.dcache.overall_mshr_hits::total      5354240                       # number of overall MSHR hits
system.cpu.dcache.demand_mshr_misses::.switch_cpus.data        28116                       # number of demand (read+write) MSHR misses
system.cpu.dcache.demand_mshr_misses::.switch_cpus_1.data      1301563                       # number of demand (read+write) MSHR misses
system.cpu.dcache.demand_mshr_misses::total      1329679                       # number of demand (read+write) MSHR misses
system.cpu.dcache.overall_mshr_misses::.switch_cpus.data        28116                       # number of overall MSHR misses
system.cpu.dcache.overall_mshr_misses::.switch_cpus_1.data      1301948                       # number of overall MSHR misses
system.cpu.dcache.overall_mshr_misses::total      1330064                       # number of overall MSHR misses
system.cpu.dcache.demand_mshr_miss_latency::.switch_cpus.data   1058446000                       # number of demand (read+write) MSHR miss cycles
system.cpu.dcache.demand_mshr_miss_latency::.switch_cpus_1.data 100880032588                       # number of demand (read+write) MSHR miss cycles
system.cpu.dcache.demand_mshr_miss_latency::total 101938478588                       # number of demand (read+write) MSHR miss cycles
system.cpu.dcache.overall_mshr_miss_latency::.switch_cpus.data   1058446000                       # number of overall MSHR miss cycles
system.cpu.dcache.overall_mshr_miss_latency::.switch_cpus_1.data 100896151088                       # number of overall MSHR miss cycles
system.cpu.dcache.overall_mshr_miss_latency::total 101954597088                       # number of overall MSHR miss cycles
system.cpu.dcache.demand_mshr_miss_rate::.switch_cpus.data     0.000660                       # mshr miss rate for demand accesses
system.cpu.dcache.demand_mshr_miss_rate::.switch_cpus_1.data     0.003624                       # mshr miss rate for demand accesses
system.cpu.dcache.demand_mshr_miss_rate::total     0.001609                       # mshr miss rate for demand accesses
system.cpu.dcache.overall_mshr_miss_rate::.switch_cpus.data     0.000660                       # mshr miss rate for overall accesses
system.cpu.dcache.overall_mshr_miss_rate::.switch_cpus_1.data     0.003623                       # mshr miss rate for overall accesses
system.cpu.dcache.overall_mshr_miss_rate::total     0.001609                       # mshr miss rate for overall accesses
system.cpu.dcache.demand_avg_mshr_miss_latency::.switch_cpus.data 37645.682174                       # average overall mshr miss latency
system.cpu.dcache.demand_avg_mshr_miss_latency::.switch_cpus_1.data 77506.838000                       # average overall mshr miss latency
system.cpu.dcache.demand_avg_mshr_miss_latency::total 76663.975732                       # average overall mshr miss latency
system.cpu.dcache.overall_avg_mshr_miss_latency::.switch_cpus.data 37645.682174                       # average overall mshr miss latency
system.cpu.dcache.overall_avg_mshr_miss_latency::.switch_cpus_1.data 77496.298691                       # average overall mshr miss latency
system.cpu.dcache.overall_avg_mshr_miss_latency::total 76653.903187                       # average overall mshr miss latency
system.cpu.dcache.replacements                1667325                       # number of replacements
system.cpu.dcache.ReadReq_hits::.cpu.data    237889535                       # number of ReadReq hits
system.cpu.dcache.ReadReq_hits::.switch_cpus.data     23800040                       # number of ReadReq hits
system.cpu.dcache.ReadReq_hits::.switch_cpus_1.data    236200001                       # number of ReadReq hits
system.cpu.dcache.ReadReq_hits::total       497889576                       # number of ReadReq hits
system.cpu.dcache.ReadReq_misses::.cpu.data       189746                       # number of ReadReq misses
system.cpu.dcache.ReadReq_misses::.switch_cpus.data        15894                       # number of ReadReq misses
system.cpu.dcache.ReadReq_misses::.switch_cpus_1.data      6438092                       # number of ReadReq misses
system.cpu.dcache.ReadReq_misses::total       6643732                       # number of ReadReq misses
system.cpu.dcache.ReadReq_miss_latency::.switch_cpus.data    167776500                       # number of ReadReq miss cycles
system.cpu.dcache.ReadReq_miss_latency::.switch_cpus_1.data 427565225000                       # number of ReadReq miss cycles
system.cpu.dcache.ReadReq_miss_latency::total 427733001500                       # number of ReadReq miss cycles
system.cpu.dcache.ReadReq_accesses::.cpu.data    238079281                       # number of ReadReq accesses(hits+misses)
system.cpu.dcache.ReadReq_accesses::.switch_cpus.data     23815934                       # number of ReadReq accesses(hits+misses)
system.cpu.dcache.ReadReq_accesses::.switch_cpus_1.data    242638093                       # number of ReadReq accesses(hits+misses)
system.cpu.dcache.ReadReq_accesses::total    504533308                       # number of ReadReq accesses(hits+misses)
system.cpu.dcache.ReadReq_miss_rate::.cpu.data     0.000797                       # miss rate for ReadReq accesses
system.cpu.dcache.ReadReq_miss_rate::.switch_cpus.data     0.000667                       # miss rate for ReadReq accesses
system.cpu.dcache.ReadReq_miss_rate::.switch_cpus_1.data     0.026534                       # miss rate for ReadReq accesses
system.cpu.dcache.ReadReq_miss_rate::total     0.013168                       # miss rate for ReadReq accesses
system.cpu.dcache.ReadReq_avg_miss_latency::.switch_cpus.data 10555.964515                       # average ReadReq miss latency
system.cpu.dcache.ReadReq_avg_miss_latency::.switch_cpus_1.data 66411.791723                       # average ReadReq miss latency
system.cpu.dcache.ReadReq_avg_miss_latency::total 64381.435239                       # average ReadReq miss latency
system.cpu.dcache.ReadReq_mshr_hits::.switch_cpus_1.data      5350204                       # number of ReadReq MSHR hits
system.cpu.dcache.ReadReq_mshr_hits::total      5350204                       # number of ReadReq MSHR hits
system.cpu.dcache.ReadReq_mshr_misses::.switch_cpus.data        15894                       # number of ReadReq MSHR misses
system.cpu.dcache.ReadReq_mshr_misses::.switch_cpus_1.data      1087888                       # number of ReadReq MSHR misses
system.cpu.dcache.ReadReq_mshr_misses::total      1103782                       # number of ReadReq MSHR misses
system.cpu.dcache.ReadReq_mshr_miss_latency::.switch_cpus.data    159829500                       # number of ReadReq MSHR miss cycles
system.cpu.dcache.ReadReq_mshr_miss_latency::.switch_cpus_1.data  85784188000                       # number of ReadReq MSHR miss cycles
system.cpu.dcache.ReadReq_mshr_miss_latency::total  85944017500                       # number of ReadReq MSHR miss cycles
system.cpu.dcache.ReadReq_mshr_miss_rate::.switch_cpus.data     0.000667                       # mshr miss rate for ReadReq accesses
system.cpu.dcache.ReadReq_mshr_miss_rate::.switch_cpus_1.data     0.004484                       # mshr miss rate for ReadReq accesses
system.cpu.dcache.ReadReq_mshr_miss_rate::total     0.002188                       # mshr miss rate for ReadReq accesses
system.cpu.dcache.ReadReq_avg_mshr_miss_latency::.switch_cpus.data 10055.964515                       # average ReadReq mshr miss latency
system.cpu.dcache.ReadReq_avg_mshr_miss_latency::.switch_cpus_1.data 78853.878340                       # average ReadReq mshr miss latency
system.cpu.dcache.ReadReq_avg_mshr_miss_latency::total 77863.217103                       # average ReadReq mshr miss latency
system.cpu.dcache.WriteReq_hits::.cpu.data    186544031                       # number of WriteReq hits
system.cpu.dcache.WriteReq_hits::.switch_cpus.data     18750994                       # number of WriteReq hits
system.cpu.dcache.WriteReq_hits::.switch_cpus_1.data    116321785                       # number of WriteReq hits
system.cpu.dcache.WriteReq_hits::total      321616810                       # number of WriteReq hits
system.cpu.dcache.WriteReq_misses::.cpu.data       151686                       # number of WriteReq misses
system.cpu.dcache.WriteReq_misses::.switch_cpus.data        12222                       # number of WriteReq misses
system.cpu.dcache.WriteReq_misses::.switch_cpus_1.data       217711                       # number of WriteReq misses
system.cpu.dcache.WriteReq_misses::total       381619                       # number of WriteReq misses
system.cpu.dcache.WriteReq_miss_latency::.switch_cpus.data    904727500                       # number of WriteReq miss cycles
system.cpu.dcache.WriteReq_miss_latency::.switch_cpus_1.data  15480032583                       # number of WriteReq miss cycles
system.cpu.dcache.WriteReq_miss_latency::total  16384760083                       # number of WriteReq miss cycles
system.cpu.dcache.WriteReq_accesses::.cpu.data    186695717                       # number of WriteReq accesses(hits+misses)
system.cpu.dcache.WriteReq_accesses::.switch_cpus.data     18763216                       # number of WriteReq accesses(hits+misses)
system.cpu.dcache.WriteReq_accesses::.switch_cpus_1.data    116539496                       # number of WriteReq accesses(hits+misses)
system.cpu.dcache.WriteReq_accesses::total    321998429                       # number of WriteReq accesses(hits+misses)
system.cpu.dcache.WriteReq_miss_rate::.cpu.data     0.000812                       # miss rate for WriteReq accesses
system.cpu.dcache.WriteReq_miss_rate::.switch_cpus.data     0.000651                       # miss rate for WriteReq accesses
system.cpu.dcache.WriteReq_miss_rate::.switch_cpus_1.data     0.001868                       # miss rate for WriteReq accesses
system.cpu.dcache.WriteReq_miss_rate::total     0.001185                       # miss rate for WriteReq accesses
system.cpu.dcache.WriteReq_avg_miss_latency::.switch_cpus.data 74024.504991                       # average WriteReq miss latency
system.cpu.dcache.WriteReq_avg_miss_latency::.switch_cpus_1.data 71103.584950                       # average WriteReq miss latency
system.cpu.dcache.WriteReq_avg_miss_latency::total 42934.864572                       # average WriteReq miss latency
system.cpu.dcache.WriteReq_mshr_hits::.switch_cpus_1.data         4036                       # number of WriteReq MSHR hits
system.cpu.dcache.WriteReq_mshr_hits::total         4036                       # number of WriteReq MSHR hits
system.cpu.dcache.WriteReq_mshr_misses::.switch_cpus.data        12222                       # number of WriteReq MSHR misses
system.cpu.dcache.WriteReq_mshr_misses::.switch_cpus_1.data       213675                       # number of WriteReq MSHR misses
system.cpu.dcache.WriteReq_mshr_misses::total       225897                       # number of WriteReq MSHR misses
system.cpu.dcache.WriteReq_mshr_miss_latency::.switch_cpus.data    898616500                       # number of WriteReq MSHR miss cycles
system.cpu.dcache.WriteReq_mshr_miss_latency::.switch_cpus_1.data  15095844588                       # number of WriteReq MSHR miss cycles
system.cpu.dcache.WriteReq_mshr_miss_latency::total  15994461088                       # number of WriteReq MSHR miss cycles
system.cpu.dcache.WriteReq_mshr_miss_rate::.switch_cpus.data     0.000651                       # mshr miss rate for WriteReq accesses
system.cpu.dcache.WriteReq_mshr_miss_rate::.switch_cpus_1.data     0.001833                       # mshr miss rate for WriteReq accesses
system.cpu.dcache.WriteReq_mshr_miss_rate::total     0.000702                       # mshr miss rate for WriteReq accesses
system.cpu.dcache.WriteReq_avg_mshr_miss_latency::.switch_cpus.data 73524.504991                       # average WriteReq mshr miss latency
system.cpu.dcache.WriteReq_avg_mshr_miss_latency::.switch_cpus_1.data 70648.623320                       # average WriteReq mshr miss latency
system.cpu.dcache.WriteReq_avg_mshr_miss_latency::total 70804.220897                       # average WriteReq mshr miss latency
system.cpu.dcache.SoftPFReq_hits::.switch_cpus_1.data       181483                       # number of SoftPFReq hits
system.cpu.dcache.SoftPFReq_hits::total        181483                       # number of SoftPFReq hits
system.cpu.dcache.SoftPFReq_misses::.switch_cpus_1.data          673                       # number of SoftPFReq misses
system.cpu.dcache.SoftPFReq_misses::total          673                       # number of SoftPFReq misses
system.cpu.dcache.SoftPFReq_accesses::.switch_cpus_1.data       182156                       # number of SoftPFReq accesses(hits+misses)
system.cpu.dcache.SoftPFReq_accesses::total       182156                       # number of SoftPFReq accesses(hits+misses)
system.cpu.dcache.SoftPFReq_miss_rate::.switch_cpus_1.data     0.003695                       # miss rate for SoftPFReq accesses
system.cpu.dcache.SoftPFReq_miss_rate::total     0.003695                       # miss rate for SoftPFReq accesses
system.cpu.dcache.SoftPFReq_mshr_misses::.switch_cpus_1.data          385                       # number of SoftPFReq MSHR misses
system.cpu.dcache.SoftPFReq_mshr_misses::total          385                       # number of SoftPFReq MSHR misses
system.cpu.dcache.SoftPFReq_mshr_miss_latency::.switch_cpus_1.data     16118500                       # number of SoftPFReq MSHR miss cycles
system.cpu.dcache.SoftPFReq_mshr_miss_latency::total     16118500                       # number of SoftPFReq MSHR miss cycles
system.cpu.dcache.SoftPFReq_mshr_miss_rate::.switch_cpus_1.data     0.002114                       # mshr miss rate for SoftPFReq accesses
system.cpu.dcache.SoftPFReq_mshr_miss_rate::total     0.002114                       # mshr miss rate for SoftPFReq accesses
system.cpu.dcache.SoftPFReq_avg_mshr_miss_latency::.switch_cpus_1.data 41866.233766                       # average SoftPFReq mshr miss latency
system.cpu.dcache.SoftPFReq_avg_mshr_miss_latency::total 41866.233766                       # average SoftPFReq mshr miss latency
system.cpu.dcache.power_state.pwrStateResidencyTicks::UNDEFINED 1528563639500                       # Cumulative time (in ticks) in various power states
system.cpu.dcache.tags.tagsinuse           511.995921                       # Cycle average of tags in use
system.cpu.dcache.tags.total_refs           821359463                       # Total number of references to valid blocks.
system.cpu.dcache.tags.sampled_refs           1667837                       # Sample count of references to valid blocks.
system.cpu.dcache.tags.avg_refs            492.469865                       # Average number of references to valid blocks.
system.cpu.dcache.tags.warmup_cycle              1500                       # Cycle when the warmup percentage was hit.
system.cpu.dcache.tags.occ_blocks::.cpu.data   389.390285                       # Average occupied blocks per requestor
system.cpu.dcache.tags.occ_blocks::.switch_cpus.data    24.647968                       # Average occupied blocks per requestor
system.cpu.dcache.tags.occ_blocks::.switch_cpus_1.data    97.957669                       # Average occupied blocks per requestor
system.cpu.dcache.tags.occ_percent::.cpu.data     0.760528                       # Average percentage of cache occupancy
system.cpu.dcache.tags.occ_percent::.switch_cpus.data     0.048141                       # Average percentage of cache occupancy
system.cpu.dcache.tags.occ_percent::.switch_cpus_1.data     0.191324                       # Average percentage of cache occupancy
system.cpu.dcache.tags.occ_percent::total     0.999992                       # Average percentage of cache occupancy
system.cpu.dcache.tags.occ_task_id_blocks::1024          512                       # Occupied blocks per task id
system.cpu.dcache.tags.age_task_id_blocks_1024::0            2                       # Occupied blocks per task id
system.cpu.dcache.tags.age_task_id_blocks_1024::1           26                       # Occupied blocks per task id
system.cpu.dcache.tags.age_task_id_blocks_1024::2          142                       # Occupied blocks per task id
system.cpu.dcache.tags.age_task_id_blocks_1024::3          187                       # Occupied blocks per task id
system.cpu.dcache.tags.age_task_id_blocks_1024::4          155                       # Occupied blocks per task id
system.cpu.dcache.tags.occ_task_id_percent::1024            1                       # Percentage of cache occupancy per task id
system.cpu.dcache.tags.tag_accesses        3308523409                       # Number of tag accesses
system.cpu.dcache.tags.data_accesses       3308523409                       # Number of data accesses
system.cpu.dcache.tags.cache_friendly               0                       # Number of cache friendly accesses
system.cpu.dcache.tags.cache_averse         821359463                       # Number of cache averse accesses
system.cpu.dcache.tags.cache_friendly_victims            0                       # Number of cache friendly victims
system.cpu.dcache.tags.cache_averse_victims      1667837                       # Number of cache averse victims
system.cpu.dcache.tags.OPT_hits                     0                       # Number of OPT hits
system.cpu.dcache.tags.OPT_misses                   0                       # Number of OPT misses
system.cpu.dcache.tags.OPT_nan              826713893                       # Number of OPT nan
system.cpu.dcache.tags.power_state.pwrStateResidencyTicks::UNDEFINED 1528563639500                       # Cumulative time (in ticks) in various power states
system.cpu.power_state.numTransitions               2                       # Number of power state transitions
system.cpu.power_state.pwrStateResidencyTicks::ON 1135600018000                       # Cumulative time (in ticks) in various power states
system.cpu.power_state.pwrStateResidencyTicks::OFF 392963621500                       # Cumulative time (in ticks) in various power states

---------- End Simulation Statistics   ----------
