
---------- Begin Simulation Statistics ----------
final_tick                                  197289000                       # Number of ticks from beginning of simulation (restored from checkpoints and never reset)
host_inst_rate                                 343297                       # Simulator instruction rate (inst/s)
host_mem_usage                                 735856                       # Number of bytes of host memory used
host_op_rate                                   685125                       # Simulator op (including micro ops) rate (op/s)
host_seconds                                     0.20                       # Real time elapsed on the host
host_tick_rate                              980629714                       # Simulator tick rate (ticks/s)
sim_freq                                 1000000000000                       # Frequency of simulated ticks
sim_insts                                       69037                       # Number of instructions simulated
sim_ops                                        137829                       # Number of ops (including micro ops) simulated
sim_seconds                                  0.000197                       # Number of seconds simulated
sim_ticks                                   197289000                       # Number of ticks simulated
system.cpu.committedInsts                           1                       # Number of instructions committed
system.cpu.committedOps                             1                       # Number of ops (including micro ops) committed
system.cpu.dtb.rdAccesses                           0                       # TLB accesses on read requests
system.cpu.dtb.rdMisses                             0                       # TLB misses on read requests
system.cpu.dtb.wrAccesses                           0                       # TLB accesses on write requests
system.cpu.dtb.wrMisses                             0                       # TLB misses on write requests
system.cpu.idle_fraction                            0                       # Percentage of idle cycles
system.cpu.itb.rdAccesses                           0                       # TLB accesses on read requests
system.cpu.itb.rdMisses                             0                       # TLB misses on read requests
system.cpu.itb.wrAccesses                           1                       # TLB accesses on write requests
system.cpu.itb.wrMisses                             1                       # TLB misses on write requests
system.cpu.not_idle_fraction                        1                       # Percentage of non-idle cycles
system.cpu.numCycles                                1                       # number of cpu cycles simulated
system.cpu.numWorkItemsCompleted                    0                       # number of work items this cpu completed
system.cpu.numWorkItemsStarted                      0                       # number of work items this cpu started
system.cpu.num_busy_cycles                          1                       # Number of busy cycles
system.cpu.num_conditional_control_insts            0                       # number of instructions that are conditional controls
system.cpu.num_fp_alu_accesses                      0                       # Number of float alu accesses
system.cpu.num_fp_insts                             0                       # number of float instructions
system.cpu.num_fp_register_reads                    0                       # number of times the floating registers were read
system.cpu.num_fp_register_writes                   0                       # number of times the floating registers were written
system.cpu.num_func_calls                           0                       # number of times a function call or return occured
system.cpu.num_idle_cycles                          0                       # Number of idle cycles
system.cpu.num_int_alu_accesses                     1                       # Number of integer alu accesses
system.cpu.num_int_insts                            1                       # number of integer instructions
system.cpu.num_int_register_reads                   3                       # number of times the integer registers were read
system.cpu.num_int_register_writes                  1                       # number of times the integer registers were written
system.cpu.num_load_insts                           0                       # Number of load instructions
system.cpu.num_mem_refs                             0                       # number of memory refs
system.cpu.num_store_insts                          0                       # Number of store instructions
system.cpu.num_vec_alu_accesses                     0                       # Number of vector alu accesses
system.cpu.num_vec_insts                            0                       # number of vector instructions
system.cpu.num_vec_register_reads                   0                       # number of times the vector registers were read
system.cpu.num_vec_register_writes                  0                       # number of times the vector registers were written
system.cpu.op_class::No_OpClass                     0      0.00%      0.00% # Class of executed instruction
system.cpu.op_class::IntAlu                         1    100.00%    100.00% # Class of executed instruction
system.cpu.op_class::IntMult                        0      0.00%    100.00% # Class of executed instruction
system.cpu.op_class::IntDiv                         0      0.00%    100.00% # Class of executed instruction
system.cpu.op_class::FloatAdd                       0      0.00%    100.00% # Class of executed instruction
system.cpu.op_class::FloatCmp                       0      0.00%    100.00% # Class of executed instruction
system.cpu.op_class::FloatCvt                       0      0.00%    100.00% # Class of executed instruction
system.cpu.op_class::FloatMult                      0      0.00%    100.00% # Class of executed instruction
system.cpu.op_class::FloatMultAcc                   0      0.00%    100.00% # Class of executed instruction
system.cpu.op_class::FloatDiv                       0      0.00%    100.00% # Class of executed instruction
system.cpu.op_class::FloatMisc                      0      0.00%    100.00% # Class of executed instruction
system.cpu.op_class::FloatSqrt                      0      0.00%    100.00% # Class of executed instruction
system.cpu.op_class::SimdAdd                        0      0.00%    100.00% # Class of executed instruction
system.cpu.op_class::SimdAddAcc                     0      0.00%    100.00% # Class of executed instruction
system.cpu.op_class::SimdAlu                        0      0.00%    100.00% # Class of executed instruction
system.cpu.op_class::SimdCmp                        0      0.00%    100.00% # Class of executed instruction
system.cpu.op_class::SimdCvt                        0      0.00%    100.00% # Class of executed instruction
system.cpu.op_class::SimdMisc                       0      0.00%    100.00% # Class of executed instruction
system.cpu.op_class::SimdMult                       0      0.00%    100.00% # Class of executed instruction
system.cpu.op_class::SimdMultAcc                    0      0.00%    100.00% # Class of executed instruction
system.cpu.op_class::SimdShift                      0      0.00%    100.00% # Class of executed instruction
system.cpu.op_class::SimdShiftAcc                   0      0.00%    100.00% # Class of executed instruction
system.cpu.op_class::SimdDiv                        0      0.00%    100.00% # Class of executed instruction
system.cpu.op_class::SimdSqrt                       0      0.00%    100.00% # Class of executed instruction
system.cpu.op_class::SimdFloatAdd                   0      0.00%    100.00% # Class of executed instruction
system.cpu.op_class::SimdFloatAlu                   0      0.00%    100.00% # Class of executed instruction
system.cpu.op_class::SimdFloatCmp                   0      0.00%    100.00% # Class of executed instruction
system.cpu.op_class::SimdFloatCvt                   0      0.00%    100.00% # Class of executed instruction
system.cpu.op_class::SimdFloatDiv                   0      0.00%    100.00% # Class of executed instruction
system.cpu.op_class::SimdFloatMisc                  0      0.00%    100.00% # Class of executed instruction
system.cpu.op_class::SimdFloatMult                  0      0.00%    100.00% # Class of executed instruction
system.cpu.op_class::SimdFloatMultAcc               0      0.00%    100.00% # Class of executed instruction
system.cpu.op_class::SimdFloatSqrt                  0      0.00%    100.00% # Class of executed instruction
system.cpu.op_class::SimdReduceAdd                  0      0.00%    100.00% # Class of executed instruction
system.cpu.op_class::SimdReduceAlu                  0      0.00%    100.00% # Class of executed instruction
system.cpu.op_class::SimdReduceCmp                  0      0.00%    100.00% # Class of executed instruction
system.cpu.op_class::SimdFloatReduceAdd             0      0.00%    100.00% # Class of executed instruction
system.cpu.op_class::SimdFloatReduceCmp             0      0.00%    100.00% # Class of executed instruction
system.cpu.op_class::SimdAes                        0      0.00%    100.00% # Class of executed instruction
system.cpu.op_class::SimdAesMix                     0      0.00%    100.00% # Class of executed instruction
system.cpu.op_class::SimdSha1Hash                   0      0.00%    100.00% # Class of executed instruction
system.cpu.op_class::SimdSha1Hash2                  0      0.00%    100.00% # Class of executed instruction
system.cpu.op_class::SimdSha256Hash                 0      0.00%    100.00% # Class of executed instruction
system.cpu.op_class::SimdSha256Hash2                0      0.00%    100.00% # Class of executed instruction
system.cpu.op_class::SimdShaSigma2                  0      0.00%    100.00% # Class of executed instruction
system.cpu.op_class::SimdShaSigma3                  0      0.00%    100.00% # Class of executed instruction
system.cpu.op_class::SimdPredAlu                    0      0.00%    100.00% # Class of executed instruction
system.cpu.op_class::MemRead                        0      0.00%    100.00% # Class of executed instruction
system.cpu.op_class::MemWrite                       0      0.00%    100.00% # Class of executed instruction
system.cpu.op_class::FloatMemRead                   0      0.00%    100.00% # Class of executed instruction
system.cpu.op_class::FloatMemWrite                  0      0.00%    100.00% # Class of executed instruction
system.cpu.op_class::IprAccess                      0      0.00%    100.00% # Class of executed instruction
system.cpu.op_class::InstPrefetch                   0      0.00%    100.00% # Class of executed instruction
system.cpu.op_class::total                          1                       # Class of executed instruction
system.cpu.workload.numSyscalls                    46                       # Number of system calls
system.membus.snoop_filter.hit_multi_requests            0                       # Number of requests hitting in the snoop filter with multiple (>1) holders of the requested data.
system.membus.snoop_filter.hit_multi_snoops            0                       # Number of snoops hitting in the snoop filter with multiple (>1) holders of the requested data.
system.membus.snoop_filter.hit_single_requests            0                       # Number of requests hitting in the snoop filter with a single holder of the requested data.
system.membus.snoop_filter.hit_single_snoops            0                       # Number of snoops hitting in the snoop filter with a single holder of the requested data.
system.membus.snoop_filter.tot_requests          2031                       # Total number of requests made to the snoop filter.
system.membus.snoop_filter.tot_snoops               0                       # Total number of snoops made to the snoop filter.
system.switch_cpus.Branches                     12578                       # Number of branches fetched
system.switch_cpus.committedInsts               53145                       # Number of instructions committed
system.switch_cpus.committedOps                110495                       # Number of ops (including micro ops) committed
system.switch_cpus.dtb.rdAccesses               12953                       # TLB accesses on read requests
system.switch_cpus.dtb.rdMisses                   188                       # TLB misses on read requests
system.switch_cpus.dtb.wrAccesses                5410                       # TLB accesses on write requests
system.switch_cpus.dtb.wrMisses                    25                       # TLB misses on write requests
system.switch_cpus.idle_fraction                    0                       # Percentage of idle cycles
system.switch_cpus.itb.rdAccesses                   0                       # TLB accesses on read requests
system.switch_cpus.itb.rdMisses                     0                       # TLB misses on read requests
system.switch_cpus.itb.wrAccesses               68832                       # TLB accesses on write requests
system.switch_cpus.itb.wrMisses                   112                       # TLB misses on write requests
system.switch_cpus.not_idle_fraction                1                       # Percentage of non-idle cycles
system.switch_cpus.numCycles                   343143                       # number of cpu cycles simulated
system.switch_cpus.numWorkItemsCompleted            0                       # number of work items this cpu completed
system.switch_cpus.numWorkItemsStarted              0                       # number of work items this cpu started
system.switch_cpus.num_busy_cycles             343143                       # Number of busy cycles
system.switch_cpus.num_cc_register_reads        81339                       # number of times the CC registers were read
system.switch_cpus.num_cc_register_writes        38673                       # number of times the CC registers were written
system.switch_cpus.num_conditional_control_insts        10410                       # number of instructions that are conditional controls
system.switch_cpus.num_fp_alu_accesses           7340                       # Number of float alu accesses
system.switch_cpus.num_fp_insts                  7340                       # number of float instructions
system.switch_cpus.num_fp_register_reads        11842                       # number of times the floating registers were read
system.switch_cpus.num_fp_register_writes         5795                       # number of times the floating registers were written
system.switch_cpus.num_func_calls                1616                       # number of times a function call or return occured
system.switch_cpus.num_idle_cycles                  0                       # Number of idle cycles
system.switch_cpus.num_int_alu_accesses        104874                       # Number of integer alu accesses
system.switch_cpus.num_int_insts               104874                       # number of integer instructions
system.switch_cpus.num_int_register_reads       200084                       # number of times the integer registers were read
system.switch_cpus.num_int_register_writes        86101                       # number of times the integer registers were written
system.switch_cpus.num_load_insts               12937                       # Number of load instructions
system.switch_cpus.num_mem_refs                 18343                       # number of memory refs
system.switch_cpus.num_store_insts               5406                       # Number of store instructions
system.switch_cpus.num_vec_alu_accesses             0                       # Number of vector alu accesses
system.switch_cpus.num_vec_insts                    0                       # number of vector instructions
system.switch_cpus.num_vec_register_reads            0                       # number of times the vector registers were read
system.switch_cpus.num_vec_register_writes            0                       # number of times the vector registers were written
system.switch_cpus.op_class::No_OpClass          1499      1.36%      1.36% # Class of executed instruction
system.switch_cpus.op_class::IntAlu             85788     77.60%     78.95% # Class of executed instruction
system.switch_cpus.op_class::IntMult               21      0.02%     78.97% # Class of executed instruction
system.switch_cpus.op_class::IntDiv                56      0.05%     79.02% # Class of executed instruction
system.switch_cpus.op_class::FloatAdd              70      0.06%     79.09% # Class of executed instruction
system.switch_cpus.op_class::FloatCmp               0      0.00%     79.09% # Class of executed instruction
system.switch_cpus.op_class::FloatCvt               0      0.00%     79.09% # Class of executed instruction
system.switch_cpus.op_class::FloatMult              0      0.00%     79.09% # Class of executed instruction
system.switch_cpus.op_class::FloatMultAcc            0      0.00%     79.09% # Class of executed instruction
system.switch_cpus.op_class::FloatDiv               0      0.00%     79.09% # Class of executed instruction
system.switch_cpus.op_class::FloatMisc              0      0.00%     79.09% # Class of executed instruction
system.switch_cpus.op_class::FloatSqrt              0      0.00%     79.09% # Class of executed instruction
system.switch_cpus.op_class::SimdAdd              698      0.63%     79.72% # Class of executed instruction
system.switch_cpus.op_class::SimdAddAcc             0      0.00%     79.72% # Class of executed instruction
system.switch_cpus.op_class::SimdAlu             1099      0.99%     80.71% # Class of executed instruction
system.switch_cpus.op_class::SimdCmp                0      0.00%     80.71% # Class of executed instruction
system.switch_cpus.op_class::SimdCvt             1614      1.46%     82.17% # Class of executed instruction
system.switch_cpus.op_class::SimdMisc            1079      0.98%     83.15% # Class of executed instruction
system.switch_cpus.op_class::SimdMult               0      0.00%     83.15% # Class of executed instruction
system.switch_cpus.op_class::SimdMultAcc            0      0.00%     83.15% # Class of executed instruction
system.switch_cpus.op_class::SimdShift            288      0.26%     83.41% # Class of executed instruction
system.switch_cpus.op_class::SimdShiftAcc            0      0.00%     83.41% # Class of executed instruction
system.switch_cpus.op_class::SimdDiv                0      0.00%     83.41% # Class of executed instruction
system.switch_cpus.op_class::SimdSqrt               0      0.00%     83.41% # Class of executed instruction
system.switch_cpus.op_class::SimdFloatAdd            0      0.00%     83.41% # Class of executed instruction
system.switch_cpus.op_class::SimdFloatAlu            0      0.00%     83.41% # Class of executed instruction
system.switch_cpus.op_class::SimdFloatCmp            0      0.00%     83.41% # Class of executed instruction
system.switch_cpus.op_class::SimdFloatCvt            0      0.00%     83.41% # Class of executed instruction
system.switch_cpus.op_class::SimdFloatDiv            0      0.00%     83.41% # Class of executed instruction
system.switch_cpus.op_class::SimdFloatMisc            0      0.00%     83.41% # Class of executed instruction
system.switch_cpus.op_class::SimdFloatMult            0      0.00%     83.41% # Class of executed instruction
system.switch_cpus.op_class::SimdFloatMultAcc            0      0.00%     83.41% # Class of executed instruction
system.switch_cpus.op_class::SimdFloatSqrt            0      0.00%     83.41% # Class of executed instruction
system.switch_cpus.op_class::SimdReduceAdd            0      0.00%     83.41% # Class of executed instruction
system.switch_cpus.op_class::SimdReduceAlu            0      0.00%     83.41% # Class of executed instruction
system.switch_cpus.op_class::SimdReduceCmp            0      0.00%     83.41% # Class of executed instruction
system.switch_cpus.op_class::SimdFloatReduceAdd            0      0.00%     83.41% # Class of executed instruction
system.switch_cpus.op_class::SimdFloatReduceCmp            0      0.00%     83.41% # Class of executed instruction
system.switch_cpus.op_class::SimdAes                0      0.00%     83.41% # Class of executed instruction
system.switch_cpus.op_class::SimdAesMix             0      0.00%     83.41% # Class of executed instruction
system.switch_cpus.op_class::SimdSha1Hash            0      0.00%     83.41% # Class of executed instruction
system.switch_cpus.op_class::SimdSha1Hash2            0      0.00%     83.41% # Class of executed instruction
system.switch_cpus.op_class::SimdSha256Hash            0      0.00%     83.41% # Class of executed instruction
system.switch_cpus.op_class::SimdSha256Hash2            0      0.00%     83.41% # Class of executed instruction
system.switch_cpus.op_class::SimdShaSigma2            0      0.00%     83.41% # Class of executed instruction
system.switch_cpus.op_class::SimdShaSigma3            0      0.00%     83.41% # Class of executed instruction
system.switch_cpus.op_class::SimdPredAlu            0      0.00%     83.41% # Class of executed instruction
system.switch_cpus.op_class::MemRead            11217     10.15%     93.55% # Class of executed instruction
system.switch_cpus.op_class::MemWrite            4741      4.29%     97.84% # Class of executed instruction
system.switch_cpus.op_class::FloatMemRead         1720      1.56%     99.40% # Class of executed instruction
system.switch_cpus.op_class::FloatMemWrite          665      0.60%    100.00% # Class of executed instruction
system.switch_cpus.op_class::IprAccess              0      0.00%    100.00% # Class of executed instruction
system.switch_cpus.op_class::InstPrefetch            0      0.00%    100.00% # Class of executed instruction
system.switch_cpus.op_class::total             110555                       # Class of executed instruction
system.switch_cpus_1.branchPred.BTBCorrect            0                       # Number of correct BTB predictions (this stat may not work properly.
system.switch_cpus_1.branchPred.BTBHitPct          nan                       # BTB Hit Percentage
system.switch_cpus_1.branchPred.BTBHits             0                       # Number of BTB hits
system.switch_cpus_1.branchPred.BTBLookups            0                       # Number of BTB lookups
system.switch_cpus_1.branchPred.RASInCorrect            0                       # Number of incorrect RAS predictions.
system.switch_cpus_1.branchPred.condIncorrect          441                       # Number of conditional branches incorrect
system.switch_cpus_1.branchPred.condPredicted         6361                       # Number of conditional branches predicted
system.switch_cpus_1.branchPred.indirectHits         1177                       # Number of indirect target hits.
system.switch_cpus_1.branchPred.indirectLookups         2155                       # Number of indirect predictor lookups.
system.switch_cpus_1.branchPred.indirectMisses          978                       # Number of indirect misses.
system.switch_cpus_1.branchPred.lookups          6681                       # Number of BP lookups
system.switch_cpus_1.branchPred.usedRAS            47                       # Number of times the RAS was used to get a target.
system.switch_cpus_1.branchPredindirectMispredicted          204                       # Number of mispredicted indirect branches.
system.switch_cpus_1.cc_regfile_reads           21527                       # number of cc regfile reads
system.switch_cpus_1.cc_regfile_writes          15787                       # number of cc regfile writes
system.switch_cpus_1.commit.amos                    0                       # Number of atomic instructions committed
system.switch_cpus_1.commit.branchMispredicts          441                       # The number of times a branch was mispredicted
system.switch_cpus_1.commit.branches             3356                       # Number of branches committed
system.switch_cpus_1.commit.bw_lim_events         2271                       # number cycles where commit BW limit reached
system.switch_cpus_1.commit.commitSquashedInsts        17135                       # The number of squashed insts skipped by commit
system.switch_cpus_1.commit.committedInsts        15891                       # Number of instructions committed
system.switch_cpus_1.commit.committedOps        27333                       # Number of ops (including micro ops) committed
system.switch_cpus_1.commit.committed_per_cycle::samples        43982                       # Number of insts commited each cycle
system.switch_cpus_1.commit.committed_per_cycle::mean     0.621459                       # Number of insts commited each cycle
system.switch_cpus_1.commit.committed_per_cycle::stdev     1.917459                       # Number of insts commited each cycle
system.switch_cpus_1.commit.committed_per_cycle::underflows            0      0.00%      0.00% # Number of insts commited each cycle
system.switch_cpus_1.commit.committed_per_cycle::0        38238     86.94%     86.94% # Number of insts commited each cycle
system.switch_cpus_1.commit.committed_per_cycle::1         1112      2.53%     89.47% # Number of insts commited each cycle
system.switch_cpus_1.commit.committed_per_cycle::2          703      1.60%     91.07% # Number of insts commited each cycle
system.switch_cpus_1.commit.committed_per_cycle::3          841      1.91%     92.98% # Number of insts commited each cycle
system.switch_cpus_1.commit.committed_per_cycle::4          350      0.80%     93.77% # Number of insts commited each cycle
system.switch_cpus_1.commit.committed_per_cycle::5          227      0.52%     94.29% # Number of insts commited each cycle
system.switch_cpus_1.commit.committed_per_cycle::6           91      0.21%     94.50% # Number of insts commited each cycle
system.switch_cpus_1.commit.committed_per_cycle::7          149      0.34%     94.84% # Number of insts commited each cycle
system.switch_cpus_1.commit.committed_per_cycle::8         2271      5.16%    100.00% # Number of insts commited each cycle
system.switch_cpus_1.commit.committed_per_cycle::overflows            0      0.00%    100.00% # Number of insts commited each cycle
system.switch_cpus_1.commit.committed_per_cycle::min_value            0                       # Number of insts commited each cycle
system.switch_cpus_1.commit.committed_per_cycle::max_value            8                       # Number of insts commited each cycle
system.switch_cpus_1.commit.committed_per_cycle::total        43982                       # Number of insts commited each cycle
system.switch_cpus_1.commit.fp_insts              333                       # Number of committed floating point instructions.
system.switch_cpus_1.commit.function_calls           26                       # Number of function calls committed.
system.switch_cpus_1.commit.int_insts           27063                       # Number of committed integer instructions.
system.switch_cpus_1.commit.loads                4050                       # Number of loads committed
system.switch_cpus_1.commit.membars                 0                       # Number of memory barriers committed
system.switch_cpus_1.commit.op_class_0::No_OpClass           83      0.30%      0.30% # Class of committed instruction
system.switch_cpus_1.commit.op_class_0::IntAlu        21543     78.82%     79.12% # Class of committed instruction
system.switch_cpus_1.commit.op_class_0::IntMult            0      0.00%     79.12% # Class of committed instruction
system.switch_cpus_1.commit.op_class_0::IntDiv          124      0.45%     79.57% # Class of committed instruction
system.switch_cpus_1.commit.op_class_0::FloatAdd            9      0.03%     79.61% # Class of committed instruction
system.switch_cpus_1.commit.op_class_0::FloatCmp            0      0.00%     79.61% # Class of committed instruction
system.switch_cpus_1.commit.op_class_0::FloatCvt            0      0.00%     79.61% # Class of committed instruction
system.switch_cpus_1.commit.op_class_0::FloatMult            0      0.00%     79.61% # Class of committed instruction
system.switch_cpus_1.commit.op_class_0::FloatMultAcc            0      0.00%     79.61% # Class of committed instruction
system.switch_cpus_1.commit.op_class_0::FloatDiv            0      0.00%     79.61% # Class of committed instruction
system.switch_cpus_1.commit.op_class_0::FloatMisc            0      0.00%     79.61% # Class of committed instruction
system.switch_cpus_1.commit.op_class_0::FloatSqrt            0      0.00%     79.61% # Class of committed instruction
system.switch_cpus_1.commit.op_class_0::SimdAdd           32      0.12%     79.72% # Class of committed instruction
system.switch_cpus_1.commit.op_class_0::SimdAddAcc            0      0.00%     79.72% # Class of committed instruction
system.switch_cpus_1.commit.op_class_0::SimdAlu           58      0.21%     79.94% # Class of committed instruction
system.switch_cpus_1.commit.op_class_0::SimdCmp            0      0.00%     79.94% # Class of committed instruction
system.switch_cpus_1.commit.op_class_0::SimdCvt           68      0.25%     80.19% # Class of committed instruction
system.switch_cpus_1.commit.op_class_0::SimdMisc           32      0.12%     80.30% # Class of committed instruction
system.switch_cpus_1.commit.op_class_0::SimdMult            0      0.00%     80.30% # Class of committed instruction
system.switch_cpus_1.commit.op_class_0::SimdMultAcc            0      0.00%     80.30% # Class of committed instruction
system.switch_cpus_1.commit.op_class_0::SimdShift           14      0.05%     80.35% # Class of committed instruction
system.switch_cpus_1.commit.op_class_0::SimdShiftAcc            0      0.00%     80.35% # Class of committed instruction
system.switch_cpus_1.commit.op_class_0::SimdDiv            0      0.00%     80.35% # Class of committed instruction
system.switch_cpus_1.commit.op_class_0::SimdSqrt            0      0.00%     80.35% # Class of committed instruction
system.switch_cpus_1.commit.op_class_0::SimdFloatAdd            0      0.00%     80.35% # Class of committed instruction
system.switch_cpus_1.commit.op_class_0::SimdFloatAlu            0      0.00%     80.35% # Class of committed instruction
system.switch_cpus_1.commit.op_class_0::SimdFloatCmp            0      0.00%     80.35% # Class of committed instruction
system.switch_cpus_1.commit.op_class_0::SimdFloatCvt            0      0.00%     80.35% # Class of committed instruction
system.switch_cpus_1.commit.op_class_0::SimdFloatDiv            0      0.00%     80.35% # Class of committed instruction
system.switch_cpus_1.commit.op_class_0::SimdFloatMisc            0      0.00%     80.35% # Class of committed instruction
system.switch_cpus_1.commit.op_class_0::SimdFloatMult            0      0.00%     80.35% # Class of committed instruction
system.switch_cpus_1.commit.op_class_0::SimdFloatMultAcc            0      0.00%     80.35% # Class of committed instruction
system.switch_cpus_1.commit.op_class_0::SimdFloatSqrt            0      0.00%     80.35% # Class of committed instruction
system.switch_cpus_1.commit.op_class_0::SimdReduceAdd            0      0.00%     80.35% # Class of committed instruction
system.switch_cpus_1.commit.op_class_0::SimdReduceAlu            0      0.00%     80.35% # Class of committed instruction
system.switch_cpus_1.commit.op_class_0::SimdReduceCmp            0      0.00%     80.35% # Class of committed instruction
system.switch_cpus_1.commit.op_class_0::SimdFloatReduceAdd            0      0.00%     80.35% # Class of committed instruction
system.switch_cpus_1.commit.op_class_0::SimdFloatReduceCmp            0      0.00%     80.35% # Class of committed instruction
system.switch_cpus_1.commit.op_class_0::SimdAes            0      0.00%     80.35% # Class of committed instruction
system.switch_cpus_1.commit.op_class_0::SimdAesMix            0      0.00%     80.35% # Class of committed instruction
system.switch_cpus_1.commit.op_class_0::SimdSha1Hash            0      0.00%     80.35% # Class of committed instruction
system.switch_cpus_1.commit.op_class_0::SimdSha1Hash2            0      0.00%     80.35% # Class of committed instruction
system.switch_cpus_1.commit.op_class_0::SimdSha256Hash            0      0.00%     80.35% # Class of committed instruction
system.switch_cpus_1.commit.op_class_0::SimdSha256Hash2            0      0.00%     80.35% # Class of committed instruction
system.switch_cpus_1.commit.op_class_0::SimdShaSigma2            0      0.00%     80.35% # Class of committed instruction
system.switch_cpus_1.commit.op_class_0::SimdShaSigma3            0      0.00%     80.35% # Class of committed instruction
system.switch_cpus_1.commit.op_class_0::SimdPredAlu            0      0.00%     80.35% # Class of committed instruction
system.switch_cpus_1.commit.op_class_0::MemRead         3964     14.50%     94.86% # Class of committed instruction
system.switch_cpus_1.commit.op_class_0::MemWrite         1290      4.72%     99.58% # Class of committed instruction
system.switch_cpus_1.commit.op_class_0::FloatMemRead           86      0.31%     99.89% # Class of committed instruction
system.switch_cpus_1.commit.op_class_0::FloatMemWrite           30      0.11%    100.00% # Class of committed instruction
system.switch_cpus_1.commit.op_class_0::IprAccess            0      0.00%    100.00% # Class of committed instruction
system.switch_cpus_1.commit.op_class_0::InstPrefetch            0      0.00%    100.00% # Class of committed instruction
system.switch_cpus_1.commit.op_class_0::total        27333                       # Class of committed instruction
system.switch_cpus_1.commit.refs                 5370                       # Number of memory references committed
system.switch_cpus_1.commit.swp_count               0                       # Number of s/w prefetches committed
system.switch_cpus_1.commit.vec_insts               0                       # Number of committed Vector instructions.
system.switch_cpus_1.committedInsts             15891                       # Number of Instructions Simulated
system.switch_cpus_1.committedOps               27333                       # Number of Ops (including micro ops) Simulated
system.switch_cpus_1.cpi                     3.236738                       # CPI: Cycles Per Instruction
system.switch_cpus_1.cpi_total               3.236738                       # CPI: Total CPI of All Threads
system.switch_cpus_1.decode.BlockedCycles        35674                       # Number of cycles decode is blocked
system.switch_cpus_1.decode.DecodedInsts        51136                       # Number of instructions handled by decode
system.switch_cpus_1.decode.IdleCycles           3972                       # Number of cycles decode is idle
system.switch_cpus_1.decode.RunCycles            4776                       # Number of cycles decode is running
system.switch_cpus_1.decode.SquashCycles          465                       # Number of cycles decode is squashing
system.switch_cpus_1.decode.UnblockCycles         1825                       # Number of cycles decode is unblocking
system.switch_cpus_1.dtb.rdAccesses              5920                       # TLB accesses on read requests
system.switch_cpus_1.dtb.rdMisses                 195                       # TLB misses on read requests
system.switch_cpus_1.dtb.wrAccesses              2277                       # TLB accesses on write requests
system.switch_cpus_1.dtb.wrMisses                   7                       # TLB misses on write requests
system.switch_cpus_1.fetch.Branches              6681                       # Number of branches that fetch encountered
system.switch_cpus_1.fetch.CacheLines            3714                       # Number of cache lines fetched
system.switch_cpus_1.fetch.Cycles               43068                       # Number of cycles fetch has run and was not squashing or blocked
system.switch_cpus_1.fetch.IcacheSquashes          104                       # Number of outstanding Icache misses that were squashed
system.switch_cpus_1.fetch.IcacheWaitRetryStallCycles            1                       # Number of stall cycles due to full MSHR
system.switch_cpus_1.fetch.Insts                33295                       # Number of instructions fetch has processed
system.switch_cpus_1.fetch.MiscStallCycles            1                       # Number of cycles fetch has spent waiting on interrupts, or bad addresses, or out of MSHRs
system.switch_cpus_1.fetch.SquashCycles           930                       # Number of cycles fetch has spent squashing
system.switch_cpus_1.fetch.branchRate        0.129892                       # Number of branch fetches per cycle
system.switch_cpus_1.fetch.icacheStallCycles         3181                       # Number of cycles fetch is stalled on an Icache miss
system.switch_cpus_1.fetch.predictedBranches         1224                       # Number of branches that fetch has predicted taken
system.switch_cpus_1.fetch.rate              0.647322                       # Number of inst fetches per cycle
system.switch_cpus_1.fetch.rateDist::samples        46716                       # Number of instructions fetched each cycle (Total)
system.switch_cpus_1.fetch.rateDist::mean     1.250899                       # Number of instructions fetched each cycle (Total)
system.switch_cpus_1.fetch.rateDist::stdev     2.710484                       # Number of instructions fetched each cycle (Total)
system.switch_cpus_1.fetch.rateDist::underflows            0      0.00%      0.00% # Number of instructions fetched each cycle (Total)
system.switch_cpus_1.fetch.rateDist::0          37265     79.77%     79.77% # Number of instructions fetched each cycle (Total)
system.switch_cpus_1.fetch.rateDist::1            363      0.78%     80.55% # Number of instructions fetched each cycle (Total)
system.switch_cpus_1.fetch.rateDist::2            469      1.00%     81.55% # Number of instructions fetched each cycle (Total)
system.switch_cpus_1.fetch.rateDist::3           1579      3.38%     84.93% # Number of instructions fetched each cycle (Total)
system.switch_cpus_1.fetch.rateDist::4            452      0.97%     85.90% # Number of instructions fetched each cycle (Total)
system.switch_cpus_1.fetch.rateDist::5            328      0.70%     86.60% # Number of instructions fetched each cycle (Total)
system.switch_cpus_1.fetch.rateDist::6            357      0.76%     87.36% # Number of instructions fetched each cycle (Total)
system.switch_cpus_1.fetch.rateDist::7            415      0.89%     88.25% # Number of instructions fetched each cycle (Total)
system.switch_cpus_1.fetch.rateDist::8           5488     11.75%    100.00% # Number of instructions fetched each cycle (Total)
system.switch_cpus_1.fetch.rateDist::overflows            0      0.00%    100.00% # Number of instructions fetched each cycle (Total)
system.switch_cpus_1.fetch.rateDist::min_value            0                       # Number of instructions fetched each cycle (Total)
system.switch_cpus_1.fetch.rateDist::max_value            8                       # Number of instructions fetched each cycle (Total)
system.switch_cpus_1.fetch.rateDist::total        46716                       # Number of instructions fetched each cycle (Total)
system.switch_cpus_1.fp_regfile_reads            1364                       # number of floating regfile reads
system.switch_cpus_1.fp_regfile_writes            803                       # number of floating regfile writes
system.switch_cpus_1.idleCycles                  4719                       # Total number of cycles that the CPU has spent unscheduled due to idling
system.switch_cpus_1.iew.branchMispredicts          538                       # Number of branch mispredicts detected at execute
system.switch_cpus_1.iew.exec_branches           4093                       # Number of branches executed
system.switch_cpus_1.iew.exec_nop                   0                       # number of nop insts executed
system.switch_cpus_1.iew.exec_rate           0.758686                       # Inst execution rate
system.switch_cpus_1.iew.exec_refs               8649                       # number of memory reference insts executed
system.switch_cpus_1.iew.exec_stores             2277                       # Number of stores executed
system.switch_cpus_1.iew.exec_swp                   0                       # number of swp insts executed
system.switch_cpus_1.iew.iewBlockCycles         18614                       # Number of cycles IEW is blocking
system.switch_cpus_1.iew.iewDispLoadInsts         6649                       # Number of dispatched load instructions
system.switch_cpus_1.iew.iewDispNonSpecInsts            0                       # Number of dispatched non-speculative instructions
system.switch_cpus_1.iew.iewDispSquashedInsts           18                       # Number of squashed instructions skipped by dispatch
system.switch_cpus_1.iew.iewDispStoreInsts         2737                       # Number of dispatched store instructions
system.switch_cpus_1.iew.iewDispatchedInsts        44849                       # Number of instructions dispatched to IQ
system.switch_cpus_1.iew.iewExecLoadInsts         6372                       # Number of load instructions executed
system.switch_cpus_1.iew.iewExecSquashedInsts         1037                       # Number of squashed instructions skipped in execute
system.switch_cpus_1.iew.iewExecutedInsts        39023                       # Number of executed instructions
system.switch_cpus_1.iew.iewIQFullEvents          208                       # Number of times the IQ has become full, causing a stall
system.switch_cpus_1.iew.iewIdleCycles              0                       # Number of cycles IEW is idle
system.switch_cpus_1.iew.iewLSQFullEvents          160                       # Number of times the LSQ has become full, causing a stall
system.switch_cpus_1.iew.iewSquashCycles          465                       # Number of cycles IEW is squashing
system.switch_cpus_1.iew.iewUnblockCycles          474                       # Number of cycles IEW is unblocking
system.switch_cpus_1.iew.lsq.thread0.blockedLoads            0                       # Number of blocked loads due to partial load-store forwarding
system.switch_cpus_1.iew.lsq.thread0.cacheBlocked          167                       # Number of times an access to memory failed due to the cache being blocked
system.switch_cpus_1.iew.lsq.thread0.forwLoads          292                       # Number of loads that had data forwarded from stores
system.switch_cpus_1.iew.lsq.thread0.ignoredResponses            0                       # Number of memory responses ignored because the instruction is squashed
system.switch_cpus_1.iew.lsq.thread0.invAddrLoads            0                       # Number of loads ignored due to an invalid address
system.switch_cpus_1.iew.lsq.thread0.invAddrSwpfs            0                       # Number of software prefetches ignored due to an invalid address
system.switch_cpus_1.iew.lsq.thread0.memOrderViolation            7                       # Number of memory ordering violations
system.switch_cpus_1.iew.lsq.thread0.rescheduledLoads            0                       # Number of loads that were rescheduled
system.switch_cpus_1.iew.lsq.thread0.squashedLoads         2598                       # Number of loads squashed
system.switch_cpus_1.iew.lsq.thread0.squashedStores         1417                       # Number of stores squashed
system.switch_cpus_1.iew.memOrderViolationEvents            7                       # Number of memory order violations
system.switch_cpus_1.iew.predictedNotTakenIncorrect          527                       # Number of branches that were predicted not taken incorrectly
system.switch_cpus_1.iew.predictedTakenIncorrect           11                       # Number of branches that were predicted taken incorrectly
system.switch_cpus_1.iew.wb_consumers           42803                       # num instructions consuming a value
system.switch_cpus_1.iew.wb_count               37976                       # cumulative count of insts written-back
system.switch_cpus_1.iew.wb_fanout           0.665794                       # average fanout of values written-back
system.switch_cpus_1.iew.wb_producers           28498                       # num instructions producing a value
system.switch_cpus_1.iew.wb_rate             0.738330                       # insts written-back per cycle
system.switch_cpus_1.iew.wb_sent                38382                       # cumulative count of insts sent to commit
system.switch_cpus_1.int_regfile_reads          51463                       # number of integer regfile reads
system.switch_cpus_1.int_regfile_writes         31151                       # number of integer regfile writes
system.switch_cpus_1.ipc                     0.308953                       # IPC: Instructions Per Cycle
system.switch_cpus_1.ipc_total               0.308953                       # IPC: Total IPC of All Threads
system.switch_cpus_1.iq.FU_type_0::No_OpClass          368      0.92%      0.92% # Type of FU issued
system.switch_cpus_1.iq.FU_type_0::IntAlu        29907     74.65%     75.57% # Type of FU issued
system.switch_cpus_1.iq.FU_type_0::IntMult            0      0.00%     75.57% # Type of FU issued
system.switch_cpus_1.iq.FU_type_0::IntDiv          135      0.34%     75.90% # Type of FU issued
system.switch_cpus_1.iq.FU_type_0::FloatAdd           61      0.15%     76.06% # Type of FU issued
system.switch_cpus_1.iq.FU_type_0::FloatCmp            0      0.00%     76.06% # Type of FU issued
system.switch_cpus_1.iq.FU_type_0::FloatCvt            0      0.00%     76.06% # Type of FU issued
system.switch_cpus_1.iq.FU_type_0::FloatMult            0      0.00%     76.06% # Type of FU issued
system.switch_cpus_1.iq.FU_type_0::FloatMultAcc            0      0.00%     76.06% # Type of FU issued
system.switch_cpus_1.iq.FU_type_0::FloatDiv            0      0.00%     76.06% # Type of FU issued
system.switch_cpus_1.iq.FU_type_0::FloatMisc            0      0.00%     76.06% # Type of FU issued
system.switch_cpus_1.iq.FU_type_0::FloatSqrt            0      0.00%     76.06% # Type of FU issued
system.switch_cpus_1.iq.FU_type_0::SimdAdd           56      0.14%     76.20% # Type of FU issued
system.switch_cpus_1.iq.FU_type_0::SimdAddAcc            0      0.00%     76.20% # Type of FU issued
system.switch_cpus_1.iq.FU_type_0::SimdAlu          245      0.61%     76.81% # Type of FU issued
system.switch_cpus_1.iq.FU_type_0::SimdCmp            0      0.00%     76.81% # Type of FU issued
system.switch_cpus_1.iq.FU_type_0::SimdCvt          131      0.33%     77.13% # Type of FU issued
system.switch_cpus_1.iq.FU_type_0::SimdMisc           47      0.12%     77.25% # Type of FU issued
system.switch_cpus_1.iq.FU_type_0::SimdMult            0      0.00%     77.25% # Type of FU issued
system.switch_cpus_1.iq.FU_type_0::SimdMultAcc            0      0.00%     77.25% # Type of FU issued
system.switch_cpus_1.iq.FU_type_0::SimdShift           41      0.10%     77.35% # Type of FU issued
system.switch_cpus_1.iq.FU_type_0::SimdShiftAcc            0      0.00%     77.35% # Type of FU issued
system.switch_cpus_1.iq.FU_type_0::SimdDiv            0      0.00%     77.35% # Type of FU issued
system.switch_cpus_1.iq.FU_type_0::SimdSqrt            0      0.00%     77.35% # Type of FU issued
system.switch_cpus_1.iq.FU_type_0::SimdFloatAdd            0      0.00%     77.35% # Type of FU issued
system.switch_cpus_1.iq.FU_type_0::SimdFloatAlu            0      0.00%     77.35% # Type of FU issued
system.switch_cpus_1.iq.FU_type_0::SimdFloatCmp            0      0.00%     77.35% # Type of FU issued
system.switch_cpus_1.iq.FU_type_0::SimdFloatCvt            0      0.00%     77.35% # Type of FU issued
system.switch_cpus_1.iq.FU_type_0::SimdFloatDiv            0      0.00%     77.35% # Type of FU issued
system.switch_cpus_1.iq.FU_type_0::SimdFloatMisc            0      0.00%     77.35% # Type of FU issued
system.switch_cpus_1.iq.FU_type_0::SimdFloatMult            0      0.00%     77.35% # Type of FU issued
system.switch_cpus_1.iq.FU_type_0::SimdFloatMultAcc            0      0.00%     77.35% # Type of FU issued
system.switch_cpus_1.iq.FU_type_0::SimdFloatSqrt            0      0.00%     77.35% # Type of FU issued
system.switch_cpus_1.iq.FU_type_0::SimdReduceAdd            0      0.00%     77.35% # Type of FU issued
system.switch_cpus_1.iq.FU_type_0::SimdReduceAlu            0      0.00%     77.35% # Type of FU issued
system.switch_cpus_1.iq.FU_type_0::SimdReduceCmp            0      0.00%     77.35% # Type of FU issued
system.switch_cpus_1.iq.FU_type_0::SimdFloatReduceAdd            0      0.00%     77.35% # Type of FU issued
system.switch_cpus_1.iq.FU_type_0::SimdFloatReduceCmp            0      0.00%     77.35% # Type of FU issued
system.switch_cpus_1.iq.FU_type_0::SimdAes            0      0.00%     77.35% # Type of FU issued
system.switch_cpus_1.iq.FU_type_0::SimdAesMix            0      0.00%     77.35% # Type of FU issued
system.switch_cpus_1.iq.FU_type_0::SimdSha1Hash            0      0.00%     77.35% # Type of FU issued
system.switch_cpus_1.iq.FU_type_0::SimdSha1Hash2            0      0.00%     77.35% # Type of FU issued
system.switch_cpus_1.iq.FU_type_0::SimdSha256Hash            0      0.00%     77.35% # Type of FU issued
system.switch_cpus_1.iq.FU_type_0::SimdSha256Hash2            0      0.00%     77.35% # Type of FU issued
system.switch_cpus_1.iq.FU_type_0::SimdShaSigma2            0      0.00%     77.35% # Type of FU issued
system.switch_cpus_1.iq.FU_type_0::SimdShaSigma3            0      0.00%     77.35% # Type of FU issued
system.switch_cpus_1.iq.FU_type_0::SimdPredAlu            0      0.00%     77.35% # Type of FU issued
system.switch_cpus_1.iq.FU_type_0::MemRead         6401     15.98%     93.33% # Type of FU issued
system.switch_cpus_1.iq.FU_type_0::MemWrite         2202      5.50%     98.83% # Type of FU issued
system.switch_cpus_1.iq.FU_type_0::FloatMemRead          286      0.71%     99.54% # Type of FU issued
system.switch_cpus_1.iq.FU_type_0::FloatMemWrite          184      0.46%    100.00% # Type of FU issued
system.switch_cpus_1.iq.FU_type_0::IprAccess            0      0.00%    100.00% # Type of FU issued
system.switch_cpus_1.iq.FU_type_0::InstPrefetch            0      0.00%    100.00% # Type of FU issued
system.switch_cpus_1.iq.FU_type_0::total        40064                       # Type of FU issued
system.switch_cpus_1.iq.fp_alu_accesses          1086                       # Number of floating point alu accesses
system.switch_cpus_1.iq.fp_inst_queue_reads         2156                       # Number of floating instruction queue reads
system.switch_cpus_1.iq.fp_inst_queue_wakeup_accesses          917                       # Number of floating instruction queue wakeup accesses
system.switch_cpus_1.iq.fp_inst_queue_writes         2541                       # Number of floating instruction queue writes
system.switch_cpus_1.iq.fu_busy_cnt               890                       # FU busy when requested
system.switch_cpus_1.iq.fu_busy_rate         0.022214                       # FU busy rate (busy events/executed inst)
system.switch_cpus_1.iq.fu_full::No_OpClass            0      0.00%      0.00% # attempts to use FU when none available
system.switch_cpus_1.iq.fu_full::IntAlu           684     76.85%     76.85% # attempts to use FU when none available
system.switch_cpus_1.iq.fu_full::IntMult            0      0.00%     76.85% # attempts to use FU when none available
system.switch_cpus_1.iq.fu_full::IntDiv             0      0.00%     76.85% # attempts to use FU when none available
system.switch_cpus_1.iq.fu_full::FloatAdd            0      0.00%     76.85% # attempts to use FU when none available
system.switch_cpus_1.iq.fu_full::FloatCmp            0      0.00%     76.85% # attempts to use FU when none available
system.switch_cpus_1.iq.fu_full::FloatCvt            0      0.00%     76.85% # attempts to use FU when none available
system.switch_cpus_1.iq.fu_full::FloatMult            0      0.00%     76.85% # attempts to use FU when none available
system.switch_cpus_1.iq.fu_full::FloatMultAcc            0      0.00%     76.85% # attempts to use FU when none available
system.switch_cpus_1.iq.fu_full::FloatDiv            0      0.00%     76.85% # attempts to use FU when none available
system.switch_cpus_1.iq.fu_full::FloatMisc            0      0.00%     76.85% # attempts to use FU when none available
system.switch_cpus_1.iq.fu_full::FloatSqrt            0      0.00%     76.85% # attempts to use FU when none available
system.switch_cpus_1.iq.fu_full::SimdAdd            0      0.00%     76.85% # attempts to use FU when none available
system.switch_cpus_1.iq.fu_full::SimdAddAcc            0      0.00%     76.85% # attempts to use FU when none available
system.switch_cpus_1.iq.fu_full::SimdAlu            0      0.00%     76.85% # attempts to use FU when none available
system.switch_cpus_1.iq.fu_full::SimdCmp            0      0.00%     76.85% # attempts to use FU when none available
system.switch_cpus_1.iq.fu_full::SimdCvt            4      0.45%     77.30% # attempts to use FU when none available
system.switch_cpus_1.iq.fu_full::SimdMisc            0      0.00%     77.30% # attempts to use FU when none available
system.switch_cpus_1.iq.fu_full::SimdMult            0      0.00%     77.30% # attempts to use FU when none available
system.switch_cpus_1.iq.fu_full::SimdMultAcc            0      0.00%     77.30% # attempts to use FU when none available
system.switch_cpus_1.iq.fu_full::SimdShift            0      0.00%     77.30% # attempts to use FU when none available
system.switch_cpus_1.iq.fu_full::SimdShiftAcc            0      0.00%     77.30% # attempts to use FU when none available
system.switch_cpus_1.iq.fu_full::SimdDiv            0      0.00%     77.30% # attempts to use FU when none available
system.switch_cpus_1.iq.fu_full::SimdSqrt            0      0.00%     77.30% # attempts to use FU when none available
system.switch_cpus_1.iq.fu_full::SimdFloatAdd            0      0.00%     77.30% # attempts to use FU when none available
system.switch_cpus_1.iq.fu_full::SimdFloatAlu            0      0.00%     77.30% # attempts to use FU when none available
system.switch_cpus_1.iq.fu_full::SimdFloatCmp            0      0.00%     77.30% # attempts to use FU when none available
system.switch_cpus_1.iq.fu_full::SimdFloatCvt            0      0.00%     77.30% # attempts to use FU when none available
system.switch_cpus_1.iq.fu_full::SimdFloatDiv            0      0.00%     77.30% # attempts to use FU when none available
system.switch_cpus_1.iq.fu_full::SimdFloatMisc            0      0.00%     77.30% # attempts to use FU when none available
system.switch_cpus_1.iq.fu_full::SimdFloatMult            0      0.00%     77.30% # attempts to use FU when none available
system.switch_cpus_1.iq.fu_full::SimdFloatMultAcc            0      0.00%     77.30% # attempts to use FU when none available
system.switch_cpus_1.iq.fu_full::SimdFloatSqrt            0      0.00%     77.30% # attempts to use FU when none available
system.switch_cpus_1.iq.fu_full::SimdReduceAdd            0      0.00%     77.30% # attempts to use FU when none available
system.switch_cpus_1.iq.fu_full::SimdReduceAlu            0      0.00%     77.30% # attempts to use FU when none available
system.switch_cpus_1.iq.fu_full::SimdReduceCmp            0      0.00%     77.30% # attempts to use FU when none available
system.switch_cpus_1.iq.fu_full::SimdFloatReduceAdd            0      0.00%     77.30% # attempts to use FU when none available
system.switch_cpus_1.iq.fu_full::SimdFloatReduceCmp            0      0.00%     77.30% # attempts to use FU when none available
system.switch_cpus_1.iq.fu_full::SimdAes            0      0.00%     77.30% # attempts to use FU when none available
system.switch_cpus_1.iq.fu_full::SimdAesMix            0      0.00%     77.30% # attempts to use FU when none available
system.switch_cpus_1.iq.fu_full::SimdSha1Hash            0      0.00%     77.30% # attempts to use FU when none available
system.switch_cpus_1.iq.fu_full::SimdSha1Hash2            0      0.00%     77.30% # attempts to use FU when none available
system.switch_cpus_1.iq.fu_full::SimdSha256Hash            0      0.00%     77.30% # attempts to use FU when none available
system.switch_cpus_1.iq.fu_full::SimdSha256Hash2            0      0.00%     77.30% # attempts to use FU when none available
system.switch_cpus_1.iq.fu_full::SimdShaSigma2            0      0.00%     77.30% # attempts to use FU when none available
system.switch_cpus_1.iq.fu_full::SimdShaSigma3            0      0.00%     77.30% # attempts to use FU when none available
system.switch_cpus_1.iq.fu_full::SimdPredAlu            0      0.00%     77.30% # attempts to use FU when none available
system.switch_cpus_1.iq.fu_full::MemRead          144     16.18%     93.48% # attempts to use FU when none available
system.switch_cpus_1.iq.fu_full::MemWrite           37      4.16%     97.64% # attempts to use FU when none available
system.switch_cpus_1.iq.fu_full::FloatMemRead            9      1.01%     98.65% # attempts to use FU when none available
system.switch_cpus_1.iq.fu_full::FloatMemWrite           12      1.35%    100.00% # attempts to use FU when none available
system.switch_cpus_1.iq.fu_full::IprAccess            0      0.00%    100.00% # attempts to use FU when none available
system.switch_cpus_1.iq.fu_full::InstPrefetch            0      0.00%    100.00% # attempts to use FU when none available
system.switch_cpus_1.iq.int_alu_accesses        39500                       # Number of integer alu accesses
system.switch_cpus_1.iq.int_inst_queue_reads       125905                       # Number of integer instruction queue reads
system.switch_cpus_1.iq.int_inst_queue_wakeup_accesses        37059                       # Number of integer instruction queue wakeup accesses
system.switch_cpus_1.iq.int_inst_queue_writes        59785                       # Number of integer instruction queue writes
system.switch_cpus_1.iq.iqInstsAdded            44849                       # Number of instructions added to the IQ (excludes non-spec)
system.switch_cpus_1.iq.iqInstsIssued           40064                       # Number of instructions issued
system.switch_cpus_1.iq.iqSquashedInstsExamined        17470                       # Number of squashed instructions iterated over during squash; mainly for profiling
system.switch_cpus_1.iq.iqSquashedInstsIssued          331                       # Number of squashed instructions issued
system.switch_cpus_1.iq.iqSquashedOperandsExamined        23456                       # Number of squashed operands that are examined and possibly removed from graph
system.switch_cpus_1.iq.issued_per_cycle::samples        46716                       # Number of insts issued each cycle
system.switch_cpus_1.iq.issued_per_cycle::mean     0.857608                       # Number of insts issued each cycle
system.switch_cpus_1.iq.issued_per_cycle::stdev     1.914991                       # Number of insts issued each cycle
system.switch_cpus_1.iq.issued_per_cycle::underflows            0      0.00%      0.00% # Number of insts issued each cycle
system.switch_cpus_1.iq.issued_per_cycle::0        36085     77.24%     77.24% # Number of insts issued each cycle
system.switch_cpus_1.iq.issued_per_cycle::1         2357      5.05%     82.29% # Number of insts issued each cycle
system.switch_cpus_1.iq.issued_per_cycle::2         1717      3.68%     85.96% # Number of insts issued each cycle
system.switch_cpus_1.iq.issued_per_cycle::3         1282      2.74%     88.71% # Number of insts issued each cycle
system.switch_cpus_1.iq.issued_per_cycle::4         1146      2.45%     91.16% # Number of insts issued each cycle
system.switch_cpus_1.iq.issued_per_cycle::5         1224      2.62%     93.78% # Number of insts issued each cycle
system.switch_cpus_1.iq.issued_per_cycle::6         1404      3.01%     96.79% # Number of insts issued each cycle
system.switch_cpus_1.iq.issued_per_cycle::7          709      1.52%     98.30% # Number of insts issued each cycle
system.switch_cpus_1.iq.issued_per_cycle::8          792      1.70%    100.00% # Number of insts issued each cycle
system.switch_cpus_1.iq.issued_per_cycle::overflows            0      0.00%    100.00% # Number of insts issued each cycle
system.switch_cpus_1.iq.issued_per_cycle::min_value            0                       # Number of insts issued each cycle
system.switch_cpus_1.iq.issued_per_cycle::max_value            8                       # Number of insts issued each cycle
system.switch_cpus_1.iq.issued_per_cycle::total        46716                       # Number of insts issued each cycle
system.switch_cpus_1.iq.rate                 0.778925                       # Inst issue rate
system.switch_cpus_1.iq.vec_alu_accesses            0                       # Number of vector alu accesses
system.switch_cpus_1.iq.vec_inst_queue_reads            0                       # Number of vector instruction queue reads
system.switch_cpus_1.iq.vec_inst_queue_wakeup_accesses            0                       # Number of vector instruction queue wakeup accesses
system.switch_cpus_1.iq.vec_inst_queue_writes            0                       # Number of vector instruction queue writes
system.switch_cpus_1.itb.rdAccesses                 0                       # TLB accesses on read requests
system.switch_cpus_1.itb.rdMisses                   0                       # TLB misses on read requests
system.switch_cpus_1.itb.wrAccesses              3714                       # TLB accesses on write requests
system.switch_cpus_1.itb.wrMisses                   8                       # TLB misses on write requests
system.switch_cpus_1.memDep0.conflictingLoads           72                       # Number of conflicting loads.
system.switch_cpus_1.memDep0.conflictingStores            5                       # Number of conflicting stores.
system.switch_cpus_1.memDep0.insertedLoads         6649                       # Number of loads inserted to the mem dependence unit.
system.switch_cpus_1.memDep0.insertedStores         2737                       # Number of stores inserted to the mem dependence unit.
system.switch_cpus_1.misc_regfile_reads         17832                       # number of misc regfile reads
system.switch_cpus_1.misc_regfile_writes            1                       # number of misc regfile writes
system.switch_cpus_1.numCycles                  51435                       # number of cpu cycles simulated
system.switch_cpus_1.numWorkItemsCompleted            0                       # number of work items this cpu completed
system.switch_cpus_1.numWorkItemsStarted            0                       # number of work items this cpu started
system.switch_cpus_1.rename.BlockCycles         24419                       # Number of cycles rename is blocking
system.switch_cpus_1.rename.CommittedMaps        36247                       # Number of HB maps that are committed
system.switch_cpus_1.rename.IQFullEvents         3119                       # Number of times rename has blocked due to IQ full
system.switch_cpus_1.rename.IdleCycles           4806                       # Number of cycles rename is idle
system.switch_cpus_1.rename.LQFullEvents         1159                       # Number of times rename has blocked due to LQ full
system.switch_cpus_1.rename.ROBFullEvents          226                       # Number of times rename has blocked due to ROB full
system.switch_cpus_1.rename.RenameLookups       123837                       # Number of register rename lookups that rename has made
system.switch_cpus_1.rename.RenamedInsts        48875                       # Number of instructions processed by rename
system.switch_cpus_1.rename.RenamedOperands        61119                       # Number of destination operands rename has renamed
system.switch_cpus_1.rename.RunCycles            5605                       # Number of cycles rename is running
system.switch_cpus_1.rename.SQFullEvents         7443                       # Number of times rename has blocked due to SQ full
system.switch_cpus_1.rename.SquashCycles          465                       # Number of cycles rename is squashing
system.switch_cpus_1.rename.UnblockCycles        11417                       # Number of cycles rename is unblocking
system.switch_cpus_1.rename.UndoneMaps          24792                       # Number of HB maps that are undone due to squashing
system.switch_cpus_1.rename.fp_rename_lookups         2533                       # Number of floating rename lookups
system.switch_cpus_1.rename.int_rename_lookups        68343                       # Number of integer rename lookups
system.switch_cpus_1.rename.serializeStallCycles            0                       # count of cycles rename stalled for serializing inst
system.switch_cpus_1.rename.serializingInsts            0                       # count of serializing insts renamed
system.switch_cpus_1.rename.skidInsts            8168                       # count of insts added to the skid buffer
system.switch_cpus_1.rename.tempSerializingInsts            0                       # count of temporary serializing insts renamed
system.switch_cpus_1.rob.rob_reads              85932                       # The number of ROB reads
system.switch_cpus_1.rob.rob_writes             91792                       # The number of ROB writes
system.switch_cpus_1.timesIdled                    51                       # Number of times that the entire CPU went into an idle state and unscheduled itself
system.tol2bus.snoop_filter.hit_multi_requests            0                       # Number of requests hitting in the snoop filter with multiple (>1) holders of the requested data.
system.tol2bus.snoop_filter.hit_multi_snoops            0                       # Number of snoops hitting in the snoop filter with multiple (>1) holders of the requested data.
system.tol2bus.snoop_filter.hit_single_requests         1169                       # Number of requests hitting in the snoop filter with a single holder of the requested data.
system.tol2bus.snoop_filter.hit_single_snoops            1                       # Number of snoops hitting in the snoop filter with a single holder of the requested data.
system.tol2bus.snoop_filter.tot_requests         3314                       # Total number of requests made to the snoop filter.
system.tol2bus.snoop_filter.tot_snoops              1                       # Total number of snoops made to the snoop filter.
system.tol3bus.snoop_filter.hit_multi_requests            0                       # Number of requests hitting in the snoop filter with multiple (>1) holders of the requested data.
system.tol3bus.snoop_filter.hit_multi_snoops            0                       # Number of snoops hitting in the snoop filter with multiple (>1) holders of the requested data.
system.tol3bus.snoop_filter.hit_single_requests            1                       # Number of requests hitting in the snoop filter with a single holder of the requested data.
system.tol3bus.snoop_filter.hit_single_snoops            0                       # Number of snoops hitting in the snoop filter with a single holder of the requested data.
system.tol3bus.snoop_filter.tot_requests         2032                       # Total number of requests made to the snoop filter.
system.tol3bus.snoop_filter.tot_snoops              0                       # Total number of snoops made to the snoop filter.
system.membus.trans_dist::ReadResp               1448                       # Transaction distribution
system.membus.trans_dist::ReadExReq               583                       # Transaction distribution
system.membus.trans_dist::ReadExResp              583                       # Transaction distribution
system.membus.trans_dist::ReadSharedReq          1448                       # Transaction distribution
system.membus.pkt_count_system.l3.mem_side::system.mem_ctrls.port         4062                       # Packet count per connected master and slave (bytes)
system.membus.pkt_count_system.l3.mem_side::total         4062                       # Packet count per connected master and slave (bytes)
system.membus.pkt_count::total                   4062                       # Packet count per connected master and slave (bytes)
system.membus.pkt_size_system.l3.mem_side::system.mem_ctrls.port       129984                       # Cumulative packet size per connected master and slave (bytes)
system.membus.pkt_size_system.l3.mem_side::total       129984                       # Cumulative packet size per connected master and slave (bytes)
system.membus.pkt_size::total                  129984                       # Cumulative packet size per connected master and slave (bytes)
system.membus.snoops                                0                       # Total snoops (count)
system.membus.snoopTraffic                          0                       # Total snoop traffic (bytes)
system.membus.snoop_fanout::samples              2031                       # Request fanout histogram
system.membus.snoop_fanout::mean                    0                       # Request fanout histogram
system.membus.snoop_fanout::stdev                   0                       # Request fanout histogram
system.membus.snoop_fanout::underflows              0      0.00%      0.00% # Request fanout histogram
system.membus.snoop_fanout::0                    2031    100.00%    100.00% # Request fanout histogram
system.membus.snoop_fanout::1                       0      0.00%    100.00% # Request fanout histogram
system.membus.snoop_fanout::overflows               0      0.00%    100.00% # Request fanout histogram
system.membus.snoop_fanout::min_value               0                       # Request fanout histogram
system.membus.snoop_fanout::max_value               0                       # Request fanout histogram
system.membus.snoop_fanout::total                2031                       # Request fanout histogram
system.membus.reqLayer2.occupancy             2596500                       # Layer occupancy (ticks)
system.membus.reqLayer2.utilization               1.3                       # Layer utilization (%)
system.membus.respLayer1.occupancy           10752750                       # Layer occupancy (ticks)
system.membus.respLayer1.utilization              5.5                       # Layer utilization (%)
system.membus.power_state.pwrStateResidencyTicks::UNDEFINED    197289000                       # Cumulative time (in ticks) in various power states
system.switch_cpus_1.dtb.walker.power_state.pwrStateResidencyTicks::UNDEFINED    197289000                       # Cumulative time (in ticks) in various power states
system.switch_cpus_1.itb.walker.power_state.pwrStateResidencyTicks::UNDEFINED    197289000                       # Cumulative time (in ticks) in various power states
system.switch_cpus_1.power_state.pwrStateResidencyTicks::OFF    197289000                       # Cumulative time (in ticks) in various power states
system.switch_cpus.dtb.walker.power_state.pwrStateResidencyTicks::UNDEFINED    197289000                       # Cumulative time (in ticks) in various power states
system.switch_cpus.itb.walker.power_state.pwrStateResidencyTicks::UNDEFINED    197289000                       # Cumulative time (in ticks) in various power states
system.switch_cpus.power_state.numTransitions            1                       # Number of power state transitions
system.switch_cpus.power_state.pwrStateResidencyTicks::OFF    197289000                       # Cumulative time (in ticks) in various power states
system.tol2bus.trans_dist::ReadResp              1545                       # Transaction distribution
system.tol2bus.trans_dist::WritebackDirty          536                       # Transaction distribution
system.tol2bus.trans_dist::WritebackClean          109                       # Transaction distribution
system.tol2bus.trans_dist::CleanEvict             526                       # Transaction distribution
system.tol2bus.trans_dist::ReadExReq              600                       # Transaction distribution
system.tol2bus.trans_dist::ReadExResp             600                       # Transaction distribution
system.tol2bus.trans_dist::ReadCleanReq           572                       # Transaction distribution
system.tol2bus.trans_dist::ReadSharedReq          973                       # Transaction distribution
system.tol2bus.pkt_count_system.cpu.icache.mem_side::system.l2.cpu_side         1253                       # Packet count per connected master and slave (bytes)
system.tol2bus.pkt_count_system.cpu.dcache.mem_side::system.l2.cpu_side         4206                       # Packet count per connected master and slave (bytes)
system.tol2bus.pkt_count::total                  5459                       # Packet count per connected master and slave (bytes)
system.tol2bus.pkt_size_system.cpu.icache.mem_side::system.l2.cpu_side        43584                       # Cumulative packet size per connected master and slave (bytes)
system.tol2bus.pkt_size_system.cpu.dcache.mem_side::system.l2.cpu_side       134976                       # Cumulative packet size per connected master and slave (bytes)
system.tol2bus.pkt_size::total                 178560                       # Cumulative packet size per connected master and slave (bytes)
system.tol2bus.snoops                               2                       # Total snoops (count)
system.tol2bus.snoopTraffic                         0                       # Total snoop traffic (bytes)
system.tol2bus.snoop_fanout::samples             2147                       # Request fanout histogram
system.tol2bus.snoop_fanout::mean            0.000466                       # Request fanout histogram
system.tol2bus.snoop_fanout::stdev           0.021582                       # Request fanout histogram
system.tol2bus.snoop_fanout::underflows             0      0.00%      0.00% # Request fanout histogram
system.tol2bus.snoop_fanout::0                   2146     99.95%     99.95% # Request fanout histogram
system.tol2bus.snoop_fanout::1                      1      0.05%    100.00% # Request fanout histogram
system.tol2bus.snoop_fanout::2                      0      0.00%    100.00% # Request fanout histogram
system.tol2bus.snoop_fanout::3                      0      0.00%    100.00% # Request fanout histogram
system.tol2bus.snoop_fanout::4                      0      0.00%    100.00% # Request fanout histogram
system.tol2bus.snoop_fanout::overflows              0      0.00%    100.00% # Request fanout histogram
system.tol2bus.snoop_fanout::min_value              0                       # Request fanout histogram
system.tol2bus.snoop_fanout::max_value              1                       # Request fanout histogram
system.tol2bus.snoop_fanout::total               2147                       # Request fanout histogram
system.tol2bus.reqLayer0.occupancy            2301500                       # Layer occupancy (ticks)
system.tol2bus.reqLayer0.utilization              1.2                       # Layer utilization (%)
system.tol2bus.respLayer1.occupancy           2359500                       # Layer occupancy (ticks)
system.tol2bus.respLayer1.utilization             1.2                       # Layer utilization (%)
system.tol2bus.respLayer0.occupancy            856999                       # Layer occupancy (ticks)
system.tol2bus.respLayer0.utilization             0.4                       # Layer utilization (%)
system.tol2bus.power_state.pwrStateResidencyTicks::UNDEFINED    197289000                       # Cumulative time (in ticks) in various power states
system.voltage_domain.voltage                       1                       # Voltage in Volts
system.clk_domain.clock                          1000                       # Clock period in ticks
system.l2.demand_hits::.switch_cpus.inst            1                       # number of demand (read+write) hits
system.l2.demand_hits::.switch_cpus.data           32                       # number of demand (read+write) hits
system.l2.demand_hits::.switch_cpus_1.data           81                       # number of demand (read+write) hits
system.l2.demand_hits::total                      114                       # number of demand (read+write) hits
system.l2.overall_hits::.switch_cpus.inst            1                       # number of overall hits
system.l2.overall_hits::.switch_cpus.data           32                       # number of overall hits
system.l2.overall_hits::.switch_cpus_1.data           81                       # number of overall hits
system.l2.overall_hits::total                     114                       # number of overall hits
system.l2.demand_misses::.cpu.inst                  1                       # number of demand (read+write) misses
system.l2.demand_misses::.switch_cpus.inst          483                       # number of demand (read+write) misses
system.l2.demand_misses::.switch_cpus.data          938                       # number of demand (read+write) misses
system.l2.demand_misses::.switch_cpus_1.inst           87                       # number of demand (read+write) misses
system.l2.demand_misses::.switch_cpus_1.data          522                       # number of demand (read+write) misses
system.l2.demand_misses::total                   2031                       # number of demand (read+write) misses
system.l2.overall_misses::.cpu.inst                 1                       # number of overall misses
system.l2.overall_misses::.switch_cpus.inst          483                       # number of overall misses
system.l2.overall_misses::.switch_cpus.data          938                       # number of overall misses
system.l2.overall_misses::.switch_cpus_1.inst           87                       # number of overall misses
system.l2.overall_misses::.switch_cpus_1.data          522                       # number of overall misses
system.l2.overall_misses::total                  2031                       # number of overall misses
system.l2.demand_miss_latency::.switch_cpus.inst     43239000                       # number of demand (read+write) miss cycles
system.l2.demand_miss_latency::.switch_cpus.data     80294000                       # number of demand (read+write) miss cycles
system.l2.demand_miss_latency::.switch_cpus_1.inst      7567000                       # number of demand (read+write) miss cycles
system.l2.demand_miss_latency::.switch_cpus_1.data     45348000                       # number of demand (read+write) miss cycles
system.l2.demand_miss_latency::total        176448000                       # number of demand (read+write) miss cycles
system.l2.overall_miss_latency::.switch_cpus.inst     43239000                       # number of overall miss cycles
system.l2.overall_miss_latency::.switch_cpus.data     80294000                       # number of overall miss cycles
system.l2.overall_miss_latency::.switch_cpus_1.inst      7567000                       # number of overall miss cycles
system.l2.overall_miss_latency::.switch_cpus_1.data     45348000                       # number of overall miss cycles
system.l2.overall_miss_latency::total       176448000                       # number of overall miss cycles
system.l2.demand_accesses::.cpu.inst                1                       # number of demand (read+write) accesses
[...]
system.cpu.dcache.demand_hits::.switch_cpus.data        17333                       # number of demand (read+write) hits
system.cpu.dcache.demand_hits::.switch_cpus_1.data         4148                       # number of demand (read+write) hits
system.cpu.dcache.demand_hits::total            21481                       # number of demand (read+write) hits
system.cpu.dcache.overall_hits::.switch_cpus.data        17333                       # number of overall hits
system.cpu.dcache.overall_hits::.switch_cpus_1.data         4148                       # number of overall hits
system.cpu.dcache.overall_hits::total           21481                       # number of overall hits
system.cpu.dcache.demand_misses::.switch_cpus.data          970                       # number of demand (read+write) misses
system.cpu.dcache.demand_misses::.switch_cpus_1.data         2631                       # number of demand (read+write) misses
system.cpu.dcache.demand_misses::total           3601                       # number of demand (read+write) misses
system.cpu.dcache.overall_misses::.switch_cpus.data          970                       # number of overall misses
system.cpu.dcache.overall_misses::.switch_cpus_1.data         2631                       # number of overall misses
system.cpu.dcache.overall_misses::total          3601                       # number of overall misses
system.cpu.dcache.demand_miss_latency::.switch_cpus.data     81928500                       # number of demand (read+write) miss cycles
system.cpu.dcache.demand_miss_latency::.switch_cpus_1.data    172207000                       # number of demand (read+write) miss cycles
system.cpu.dcache.demand_miss_latency::total    254135500                       # number of demand (read+write) miss cycles
system.cpu.dcache.overall_miss_latency::.switch_cpus.data     81928500                       # number of overall miss cycles
system.cpu.dcache.overall_miss_latency::.switch_cpus_1.data    172207000                       # number of overall miss cycles
system.cpu.dcache.overall_miss_latency::total    254135500                       # number of overall miss cycles
system.cpu.dcache.demand_accesses::.switch_cpus.data        18303                       # number of demand (read+write) accesses
system.cpu.dcache.demand_accesses::.switch_cpus_1.data         6779                       # number of demand (read+write) accesses
system.cpu.dcache.demand_accesses::total        25082                       # number of demand (read+write) accesses
system.cpu.dcache.overall_accesses::.switch_cpus.data        18303                       # number of overall (read+write) accesses
system.cpu.dcache.overall_accesses::.switch_cpus_1.data         6779                       # number of overall (read+write) accesses
system.cpu.dcache.overall_accesses::total        25082                       # number of overall (read+write) accesses
system.cpu.dcache.demand_miss_rate::.switch_cpus.data     0.052997                       # miss rate for demand accesses
system.cpu.dcache.demand_miss_rate::.switch_cpus_1.data     0.388110                       # miss rate for demand accesses
system.cpu.dcache.demand_miss_rate::total     0.143569                       # miss rate for demand accesses
system.cpu.dcache.overall_miss_rate::.switch_cpus.data     0.052997                       # miss rate for overall accesses
system.cpu.dcache.overall_miss_rate::.switch_cpus_1.data     0.388110                       # miss rate for overall accesses
system.cpu.dcache.overall_miss_rate::total     0.143569                       # miss rate for overall accesses
system.cpu.dcache.demand_avg_miss_latency::.switch_cpus.data 84462.371134                       # average overall miss latency
system.cpu.dcache.demand_avg_miss_latency::.switch_cpus_1.data 65453.059673                       # average overall miss latency
system.cpu.dcache.demand_avg_miss_latency::total 70573.590669                       # average overall miss latency
system.cpu.dcache.overall_avg_miss_latency::.switch_cpus.data 84462.371134                       # average overall miss latency
system.cpu.dcache.overall_avg_miss_latency::.switch_cpus_1.data 65453.059673                       # average overall miss latency
system.cpu.dcache.overall_avg_miss_latency::total 70573.590669                       # average overall miss latency
system.cpu.dcache.blocked_cycles::no_mshrs         9492                       # number of cycles access was blocked
system.cpu.dcache.blocked_cycles::no_targets            0                       # number of cycles access was blocked
system.cpu.dcache.blocked::no_mshrs               215                       # number of cycles access was blocked
system.cpu.dcache.blocked::no_targets               0                       # number of cycles access was blocked
system.cpu.dcache.avg_blocked_cycles::no_mshrs    44.148837                       # average number of cycles each access was blocked
system.cpu.dcache.avg_blocked_cycles::no_targets          nan                       # average number of cycles each access was blocked
system.cpu.dcache.writebacks::.writebacks          536                       # number of writebacks
system.cpu.dcache.writebacks::total               536                       # number of writebacks
system.cpu.dcache.demand_mshr_hits::.switch_cpus_1.data         2028                       # number of demand (read+write) MSHR hits
system.cpu.dcache.demand_mshr_hits::total         2028                       # number of demand (read+write) MSHR hits
system.cpu.dcache.overall_mshr_hits::.switch_cpus_1.data         2028                       # number of overall MSHR hits
system.cpu.dcache.overall_mshr_hits::total         2028                       # number of overall MSHR hits
system.cpu.dcache.demand_mshr_misses::.switch_cpus.data          970                       # number of demand (read+write) MSHR misses
system.cpu.dcache.demand_mshr_misses::.switch_cpus_1.data          603                       # number of demand (read+write) MSHR misses
system.cpu.dcache.demand_mshr_misses::total         1573                       # number of demand (read+write) MSHR misses
system.cpu.dcache.overall_mshr_misses::.switch_cpus.data          970                       # number of overall MSHR misses
system.cpu.dcache.overall_mshr_misses::.switch_cpus_1.data          603                       # number of overall MSHR misses
system.cpu.dcache.overall_mshr_misses::total         1573                       # number of overall MSHR misses
system.cpu.dcache.demand_mshr_miss_latency::.switch_cpus.data     81443500                       # number of demand (read+write) MSHR miss cycles
system.cpu.dcache.demand_mshr_miss_latency::.switch_cpus_1.data     46425500                       # number of demand (read+write) MSHR miss cycles
system.cpu.dcache.demand_mshr_miss_latency::total    127869000                       # number of demand (read+write) MSHR miss cycles
system.cpu.dcache.overall_mshr_miss_latency::.switch_cpus.data     81443500                       # number of overall MSHR miss cycles
system.cpu.dcache.overall_mshr_miss_latency::.switch_cpus_1.data     46425500                       # number of overall MSHR miss cycles
system.cpu.dcache.overall_mshr_miss_latency::total    127869000                       # number of overall MSHR miss cycles
system.cpu.dcache.demand_mshr_miss_rate::.switch_cpus.data     0.052997                       # mshr miss rate for demand accesses
system.cpu.dcache.demand_mshr_miss_rate::.switch_cpus_1.data     0.088951                       # mshr miss rate for demand accesses
system.cpu.dcache.demand_mshr_miss_rate::total     0.062714                       # mshr miss rate for demand accesses
system.cpu.dcache.overall_mshr_miss_rate::.switch_cpus.data     0.052997                       # mshr miss rate for overall accesses
system.cpu.dcache.overall_mshr_miss_rate::.switch_cpus_1.data     0.088951                       # mshr miss rate for overall accesses
system.cpu.dcache.overall_mshr_miss_rate::total     0.062714                       # mshr miss rate for overall accesses
system.cpu.dcache.demand_avg_mshr_miss_latency::.switch_cpus.data 83962.371134                       # average overall mshr miss latency
system.cpu.dcache.demand_avg_mshr_miss_latency::.switch_cpus_1.data 76990.878939                       # average overall mshr miss latency
system.cpu.dcache.demand_avg_mshr_miss_latency::total 81289.891926                       # average overall mshr miss latency
system.cpu.dcache.overall_avg_mshr_miss_latency::.switch_cpus.data 83962.371134                       # average overall mshr miss latency
system.cpu.dcache.overall_avg_mshr_miss_latency::.switch_cpus_1.data 76990.878939                       # average overall mshr miss latency
system.cpu.dcache.overall_avg_mshr_miss_latency::total 81289.891926                       # average overall mshr miss latency
system.cpu.dcache.replacements                   1060                       # number of replacements
system.cpu.dcache.ReadReq_hits::.switch_cpus.data        12369                       # number of ReadReq hits
system.cpu.dcache.ReadReq_hits::.switch_cpus_1.data         2993                       # number of ReadReq hits
system.cpu.dcache.ReadReq_hits::total           15362                       # number of ReadReq hits
system.cpu.dcache.ReadReq_misses::.switch_cpus.data          535                       # number of ReadReq misses
system.cpu.dcache.ReadReq_misses::.switch_cpus_1.data         2466                       # number of ReadReq misses
system.cpu.dcache.ReadReq_misses::total          3001                       # number of ReadReq misses
system.cpu.dcache.ReadReq_miss_latency::.switch_cpus.data     45373000                       # number of ReadReq miss cycles
system.cpu.dcache.ReadReq_miss_latency::.switch_cpus_1.data    159036500                       # number of ReadReq miss cycles
system.cpu.dcache.ReadReq_miss_latency::total    204409500                       # number of ReadReq miss cycles
system.cpu.dcache.ReadReq_accesses::.switch_cpus.data        12904                       # number of ReadReq accesses(hits+misses)
system.cpu.dcache.ReadReq_accesses::.switch_cpus_1.data         5459                       # number of ReadReq accesses(hits+misses)
system.cpu.dcache.ReadReq_accesses::total        18363                       # number of ReadReq accesses(hits+misses)
system.cpu.dcache.ReadReq_miss_rate::.switch_cpus.data     0.041460                       # miss rate for ReadReq accesses
system.cpu.dcache.ReadReq_miss_rate::.switch_cpus_1.data     0.451731                       # miss rate for ReadReq accesses
system.cpu.dcache.ReadReq_miss_rate::total     0.163426                       # miss rate for ReadReq accesses
system.cpu.dcache.ReadReq_avg_miss_latency::.switch_cpus.data 84809.345794                       # average ReadReq miss latency
system.cpu.dcache.ReadReq_avg_miss_latency::.switch_cpus_1.data 64491.686942                       # average ReadReq miss latency
system.cpu.dcache.ReadReq_avg_miss_latency::total 68113.795402                       # average ReadReq miss latency
system.cpu.dcache.ReadReq_mshr_hits::.switch_cpus_1.data         2028                       # number of ReadReq MSHR hits
system.cpu.dcache.ReadReq_mshr_hits::total         2028                       # number of ReadReq MSHR hits
system.cpu.dcache.ReadReq_mshr_misses::.switch_cpus.data          535                       # number of ReadReq MSHR misses
system.cpu.dcache.ReadReq_mshr_misses::.switch_cpus_1.data          438                       # number of ReadReq MSHR misses
system.cpu.dcache.ReadReq_mshr_misses::total          973                       # number of ReadReq MSHR misses
system.cpu.dcache.ReadReq_mshr_miss_latency::.switch_cpus.data     45105500                       # number of ReadReq MSHR miss cycles
system.cpu.dcache.ReadReq_mshr_miss_latency::.switch_cpus_1.data     33337000                       # number of ReadReq MSHR miss cycles
system.cpu.dcache.ReadReq_mshr_miss_latency::total     78442500                       # number of ReadReq MSHR miss cycles
system.cpu.dcache.ReadReq_mshr_miss_rate::.switch_cpus.data     0.041460                       # mshr miss rate for ReadReq accesses
system.cpu.dcache.ReadReq_mshr_miss_rate::.switch_cpus_1.data     0.080234                       # mshr miss rate for ReadReq accesses
system.cpu.dcache.ReadReq_mshr_miss_rate::total     0.052987                       # mshr miss rate for ReadReq accesses
system.cpu.dcache.ReadReq_avg_mshr_miss_latency::.switch_cpus.data 84309.345794                       # average ReadReq mshr miss latency
system.cpu.dcache.ReadReq_avg_mshr_miss_latency::.switch_cpus_1.data 76111.872146                       # average ReadReq mshr miss latency
system.cpu.dcache.ReadReq_avg_mshr_miss_latency::total 80619.218911                       # average ReadReq mshr miss latency
system.cpu.dcache.WriteReq_hits::.switch_cpus.data         4964                       # number of WriteReq hits
system.cpu.dcache.WriteReq_hits::.switch_cpus_1.data         1155                       # number of WriteReq hits
system.cpu.dcache.WriteReq_hits::total           6119                       # number of WriteReq hits
system.cpu.dcache.WriteReq_misses::.switch_cpus.data          435                       # number of WriteReq misses
system.cpu.dcache.WriteReq_misses::.switch_cpus_1.data          165                       # number of WriteReq misses
system.cpu.dcache.WriteReq_misses::total          600                       # number of WriteReq misses
system.cpu.dcache.WriteReq_miss_latency::.switch_cpus.data     36555500                       # number of WriteReq miss cycles
system.cpu.dcache.WriteReq_miss_latency::.switch_cpus_1.data     13170500                       # number of WriteReq miss cycles
system.cpu.dcache.WriteReq_miss_latency::total     49726000                       # number of WriteReq miss cycles
system.cpu.dcache.WriteReq_accesses::.switch_cpus.data         5399                       # number of WriteReq accesses(hits+misses)
system.cpu.dcache.WriteReq_accesses::.switch_cpus_1.data         1320                       # number of WriteReq accesses(hits+misses)
system.cpu.dcache.WriteReq_accesses::total         6719                       # number of WriteReq accesses(hits+misses)
system.cpu.dcache.WriteReq_miss_rate::.switch_cpus.data     0.080570                       # miss rate for WriteReq accesses
system.cpu.dcache.WriteReq_miss_rate::.switch_cpus_1.data     0.125000                       # miss rate for WriteReq accesses
system.cpu.dcache.WriteReq_miss_rate::total     0.089299                       # miss rate for WriteReq accesses
system.cpu.dcache.WriteReq_avg_miss_latency::.switch_cpus.data 84035.632184                       # average WriteReq miss latency
system.cpu.dcache.WriteReq_avg_miss_latency::.switch_cpus_1.data 79821.212121                       # average WriteReq miss latency
system.cpu.dcache.WriteReq_avg_miss_latency::total 82876.666667                       # average WriteReq miss latency
system.cpu.dcache.WriteReq_mshr_misses::.switch_cpus.data          435                       # number of WriteReq MSHR misses
system.cpu.dcache.WriteReq_mshr_misses::.switch_cpus_1.data          165                       # number of WriteReq MSHR misses
system.cpu.dcache.WriteReq_mshr_misses::total          600                       # number of WriteReq MSHR misses
system.cpu.dcache.WriteReq_mshr_miss_latency::.switch_cpus.data     36338000                       # number of WriteReq MSHR miss cycles
system.cpu.dcache.WriteReq_mshr_miss_latency::.switch_cpus_1.data     13088500                       # number of WriteReq MSHR miss cycles
system.cpu.dcache.WriteReq_mshr_miss_latency::total     49426500                       # number of WriteReq MSHR miss cycles
system.cpu.dcache.WriteReq_mshr_miss_rate::.switch_cpus.data     0.080570                       # mshr miss rate for WriteReq accesses
system.cpu.dcache.WriteReq_mshr_miss_rate::.switch_cpus_1.data     0.125000                       # mshr miss rate for WriteReq accesses
system.cpu.dcache.WriteReq_mshr_miss_rate::total     0.089299                       # mshr miss rate for WriteReq accesses
system.cpu.dcache.WriteReq_avg_mshr_miss_latency::.switch_cpus.data 83535.632184                       # average WriteReq mshr miss latency
system.cpu.dcache.WriteReq_avg_mshr_miss_latency::.switch_cpus_1.data 79324.242424                       # average WriteReq mshr miss latency
system.cpu.dcache.WriteReq_avg_mshr_miss_latency::total 82377.500000                       # average WriteReq mshr miss latency
system.cpu.dcache.power_state.pwrStateResidencyTicks::UNDEFINED    197289000                       # Cumulative time (in ticks) in various power states
system.cpu.dcache.tags.tagsinuse           356.952223                       # Cycle average of tags in use
system.cpu.dcache.tags.total_refs               23053                       # Total number of references to valid blocks.
system.cpu.dcache.tags.sampled_refs              1572                       # Sample count of references to valid blocks.
system.cpu.dcache.tags.avg_refs             14.664758                       # Average number of references to valid blocks.
system.cpu.dcache.tags.warmup_cycle            153000                       # Cycle when the warmup percentage was hit.
system.cpu.dcache.tags.occ_blocks::.switch_cpus.data   314.285197                       # Average occupied blocks per requestor
system.cpu.dcache.tags.occ_blocks::.switch_cpus_1.data    42.667026                       # Average occupied blocks per requestor
system.cpu.dcache.tags.occ_percent::.switch_cpus.data     0.613838                       # Average percentage of cache occupancy
system.cpu.dcache.tags.occ_percent::.switch_cpus_1.data     0.083334                       # Average percentage of cache occupancy
system.cpu.dcache.tags.occ_percent::total     0.697172                       # Average percentage of cache occupancy
system.cpu.dcache.tags.occ_task_id_blocks::1024          512                       # Occupied blocks per task id
system.cpu.dcache.tags.age_task_id_blocks_1024::0          107                       # Occupied blocks per task id
system.cpu.dcache.tags.age_task_id_blocks_1024::1          405                       # Occupied blocks per task id
system.cpu.dcache.tags.occ_task_id_percent::1024            1                       # Percentage of cache occupancy per task id
system.cpu.dcache.tags.tag_accesses            101900                       # Number of tag accesses
system.cpu.dcache.tags.data_accesses           101900                       # Number of data accesses
system.cpu.dcache.tags.cache_friendly               0                       # Number of cache friendly accesses
system.cpu.dcache.tags.cache_averse             23053                       # Number of cache averse accesses
system.cpu.dcache.tags.cache_friendly_victims            0                       # Number of cache friendly victims
system.cpu.dcache.tags.cache_averse_victims         1572                       # Number of cache averse victims
system.cpu.dcache.tags.OPT_hits                     0                       # Number of OPT hits
system.cpu.dcache.tags.OPT_misses                   0                       # Number of OPT misses
system.cpu.dcache.tags.OPT_nan                  25082                       # Number of OPT nan
system.cpu.dcache.tags.power_state.pwrStateResidencyTicks::UNDEFINED    197289000                       # Cumulative time (in ticks) in various power states
system.cpu.power_state.numTransitions               2                       # Number of power state transitions
system.cpu.power_state.pwrStateResidencyTicks::OFF    197289000                       # Cumulative time (in ticks) in various power states

---------- End Simulation Statistics   ----------
