
---------- Begin Simulation Statistics ----------
final_tick                               5270911561500                       # Number of ticks from beginning of simulation (restored from checkpoints and never reset)
host_inst_rate                                 135032                       # Simulator instruction rate (inst/s)
host_mem_usage                                 745768                       # Number of bytes of host memory used
host_op_rate                                   241118                       # Simulator op (including micro ops) rate (op/s)
host_seconds                                 15551.92                       # Real time elapsed on the host
host_tick_rate                              222598646                       # Simulator tick rate (ticks/s)
sim_freq                                 1000000000000                       # Frequency of simulated ticks
sim_insts                                  2100000002                       # Number of instructions simulated
sim_ops                                    3749847930                       # Number of ops (including micro ops) simulated
sim_seconds                                  3.461837                       # Number of seconds simulated
sim_ticks                                3461836533250                       # Number of ticks simulated
system.cpu.committedInsts                           0                       # Number of instructions committed
system.cpu.committedOps                             0                       # Number of ops (including micro ops) committed
system.cpu.dtb.rdAccesses                           0                       # TLB accesses on read requests
system.cpu.dtb.rdMisses                             0                       # TLB misses on read requests
system.cpu.dtb.wrAccesses                           0                       # TLB accesses on write requests
system.cpu.dtb.wrMisses                             0                       # TLB misses on write requests
system.cpu.idle_fraction                            0                       # Percentage of idle cycles
system.cpu.itb.rdAccesses                           0                       # TLB accesses on read requests
system.cpu.itb.rdMisses                             0                       # TLB misses on read requests
system.cpu.itb.wrAccesses                           0                       # TLB accesses on write requests
system.cpu.itb.wrMisses                             0                       # TLB misses on write requests
system.cpu.not_idle_fraction                        1                       # Percentage of non-idle cycles
system.cpu.numCycles                                0                       # number of cpu cycles simulated
system.cpu.numWorkItemsCompleted                    0                       # number of work items this cpu completed
system.cpu.numWorkItemsStarted                      0                       # number of work items this cpu started
system.cpu.num_busy_cycles                          0                       # Number of busy cycles
system.cpu.num_conditional_control_insts            0                       # number of instructions that are conditional controls
system.cpu.num_fp_alu_accesses                      0                       # Number of float alu accesses
system.cpu.num_fp_insts                             0                       # number of float instructions
system.cpu.num_fp_register_reads                    0                       # number of times the floating registers were read
system.cpu.num_fp_register_writes                   0                       # number of times the floating registers were written
system.cpu.num_func_calls                           0                       # number of times a function call or return occured
system.cpu.num_idle_cycles                          0                       # Number of idle cycles
system.cpu.num_int_alu_accesses                     0                       # Number of integer alu accesses
system.cpu.num_int_insts                            0                       # number of integer instructions
system.cpu.num_int_register_reads                   0                       # number of times the integer registers were read
system.cpu.num_int_register_writes                  0                       # number of times the integer registers were written
system.cpu.num_load_insts                           0                       # Number of load instructions
system.cpu.num_mem_refs                             0                       # number of memory refs
system.cpu.num_store_insts                          0                       # Number of store instructions
system.cpu.num_vec_alu_accesses                     0                       # Number of vector alu accesses
system.cpu.num_vec_insts                            0                       # number of vector instructions
system.cpu.num_vec_register_reads                   0                       # number of times the vector registers were read
system.cpu.num_vec_register_writes                  0                       # number of times the vector registers were written
system.cpu.op_class::No_OpClass                     0                       # Class of executed instruction
system.cpu.op_class::IntAlu                         0                       # Class of executed instruction
system.cpu.op_class::IntMult                        0                       # Class of executed instruction
system.cpu.op_class::IntDiv                         0                       # Class of executed instruction
system.cpu.op_class::FloatAdd                       0                       # Class of executed instruction
system.cpu.op_class::FloatCmp                       0                       # Class of executed instruction
system.cpu.op_class::FloatCvt                       0                       # Class of executed instruction
system.cpu.op_class::FloatMult                      0                       # Class of executed instruction
system.cpu.op_class::FloatMultAcc                   0                       # Class of executed instruction
system.cpu.op_class::FloatDiv                       0                       # Class of executed instruction
system.cpu.op_class::FloatMisc                      0                       # Class of executed instruction
system.cpu.op_class::FloatSqrt                      0                       # Class of executed instruction
system.cpu.op_class::SimdAdd                        0                       # Class of executed instruction
system.cpu.op_class::SimdAddAcc                     0                       # Class of executed instruction
system.cpu.op_class::SimdAlu                        0                       # Class of executed instruction
system.cpu.op_class::SimdCmp                        0                       # Class of executed instruction
system.cpu.op_class::SimdCvt                        0                       # Class of executed instruction
system.cpu.op_class::SimdMisc                       0                       # Class of executed instruction
system.cpu.op_class::SimdMult                       0                       # Class of executed instruction
system.cpu.op_class::SimdMultAcc                    0                       # Class of executed instruction
system.cpu.op_class::SimdShift                      0                       # Class of executed instruction
system.cpu.op_class::SimdShiftAcc                   0                       # Class of executed instruction
system.cpu.op_class::SimdDiv                        0                       # Class of executed instruction
system.cpu.op_class::SimdSqrt                       0                       # Class of executed instruction
system.cpu.op_class::SimdFloatAdd                   0                       # Class of executed instruction
system.cpu.op_class::SimdFloatAlu                   0                       # Class of executed instruction
system.cpu.op_class::SimdFloatCmp                   0                       # Class of executed instruction
system.cpu.op_class::SimdFloatCvt                   0                       # Class of executed instruction
system.cpu.op_class::SimdFloatDiv                   0                       # Class of executed instruction
system.cpu.op_class::SimdFloatMisc                  0                       # Class of executed instruction
system.cpu.op_class::SimdFloatMult                  0                       # Class of executed instruction
system.cpu.op_class::SimdFloatMultAcc               0                       # Class of executed instruction
system.cpu.op_class::SimdFloatSqrt                  0                       # Class of executed instruction
system.cpu.op_class::SimdReduceAdd                  0                       # Class of executed instruction
system.cpu.op_class::SimdReduceAlu                  0                       # Class of executed instruction
system.cpu.op_class::SimdReduceCmp                  0                       # Class of executed instruction
system.cpu.op_class::SimdFloatReduceAdd             0                       # Class of executed instruction
system.cpu.op_class::SimdFloatReduceCmp             0                       # Class of executed instruction
system.cpu.op_class::SimdAes                        0                       # Class of executed instruction
system.cpu.op_class::SimdAesMix                     0                       # Class of executed instruction
system.cpu.op_class::SimdSha1Hash                   0                       # Class of executed instruction
system.cpu.op_class::SimdSha1Hash2                  0                       # Class of executed instruction
system.cpu.op_class::SimdSha256Hash                 0                       # Class of executed instruction
system.cpu.op_class::SimdSha256Hash2                0                       # Class of executed instruction
system.cpu.op_class::SimdShaSigma2                  0                       # Class of executed instruction
system.cpu.op_class::SimdShaSigma3                  0                       # Class of executed instruction
system.cpu.op_class::SimdPredAlu                    0                       # Class of executed instruction
system.cpu.op_class::MemRead                        0                       # Class of executed instruction
system.cpu.op_class::MemWrite                       0                       # Class of executed instruction
system.cpu.op_class::FloatMemRead                   0                       # Class of executed instruction
system.cpu.op_class::FloatMemWrite                  0                       # Class of executed instruction
system.cpu.op_class::IprAccess                      0                       # Class of executed instruction
system.cpu.op_class::InstPrefetch                   0                       # Class of executed instruction
system.cpu.op_class::total                          0                       # Class of executed instruction
system.cpu.workload.numSyscalls                     0                       # Number of system calls
system.membus.snoop_filter.hit_multi_requests            0                       # Number of requests hitting in the snoop filter with multiple (>1) holders of the requested data.
system.membus.snoop_filter.hit_multi_snoops            0                       # Number of snoops hitting in the snoop filter with multiple (>1) holders of the requested data.
system.membus.snoop_filter.hit_single_requests     61941456                       # Number of requests hitting in the snoop filter with a single holder of the requested data.
system.membus.snoop_filter.hit_single_snoops            0                       # Number of snoops hitting in the snoop filter with a single holder of the requested data.
system.membus.snoop_filter.tot_requests     123882670                       # Total number of requests made to the snoop filter.
system.membus.snoop_filter.tot_snoops               0                       # Total number of snoops made to the snoop filter.
system.switch_cpus.committedInsts                   0                       # Number of instructions committed
system.switch_cpus.committedOps                     0                       # Number of ops (including micro ops) committed
system.switch_cpus.dtb.rdAccesses                   0                       # TLB accesses on read requests
system.switch_cpus.dtb.rdMisses                     0                       # TLB misses on read requests
system.switch_cpus.dtb.wrAccesses                   0                       # TLB accesses on write requests
system.switch_cpus.dtb.wrMisses                     0                       # TLB misses on write requests
system.switch_cpus.idle_fraction                    0                       # Percentage of idle cycles
system.switch_cpus.itb.rdAccesses                   0                       # TLB accesses on read requests
system.switch_cpus.itb.rdMisses                     0                       # TLB misses on read requests
system.switch_cpus.itb.wrAccesses                   0                       # TLB accesses on write requests
system.switch_cpus.itb.wrMisses                     0                       # TLB misses on write requests
system.switch_cpus.not_idle_fraction                1                       # Percentage of non-idle cycles
system.switch_cpus.numCycles                        0                       # number of cpu cycles simulated
system.switch_cpus.numWorkItemsCompleted            0                       # number of work items this cpu completed
system.switch_cpus.numWorkItemsStarted              0                       # number of work items this cpu started
system.switch_cpus.num_busy_cycles                  0                       # Number of busy cycles
system.switch_cpus.num_conditional_control_insts            0                       # number of instructions that are conditional controls
system.switch_cpus.num_fp_alu_accesses              0                       # Number of float alu accesses
system.switch_cpus.num_fp_insts                     0                       # number of float instructions
system.switch_cpus.num_fp_register_reads            0                       # number of times the floating registers were read
system.switch_cpus.num_fp_register_writes            0                       # number of times the floating registers were written
system.switch_cpus.num_func_calls                   0                       # number of times a function call or return occured
system.switch_cpus.num_idle_cycles                  0                       # Number of idle cycles
system.switch_cpus.num_int_alu_accesses             0                       # Number of integer alu accesses
system.switch_cpus.num_int_insts                    0                       # number of integer instructions
system.switch_cpus.num_int_register_reads            0                       # number of times the integer registers were read
system.switch_cpus.num_int_register_writes            0                       # number of times the integer registers were written
system.switch_cpus.num_load_insts                   0                       # Number of load instructions
system.switch_cpus.num_mem_refs                     0                       # number of memory refs
system.switch_cpus.num_store_insts                  0                       # Number of store instructions
system.switch_cpus.num_vec_alu_accesses             0                       # Number of vector alu accesses
system.switch_cpus.num_vec_insts                    0                       # number of vector instructions
system.switch_cpus.num_vec_register_reads            0                       # number of times the vector registers were read
system.switch_cpus.num_vec_register_writes            0                       # number of times the vector registers were written
system.switch_cpus.op_class::No_OpClass             0                       # Class of executed instruction
system.switch_cpus.op_class::IntAlu                 0                       # Class of executed instruction
system.switch_cpus.op_class::IntMult                0                       # Class of executed instruction
system.switch_cpus.op_class::IntDiv                 0                       # Class of executed instruction
system.switch_cpus.op_class::FloatAdd               0                       # Class of executed instruction
system.switch_cpus.op_class::FloatCmp               0                       # Class of executed instruction
system.switch_cpus.op_class::FloatCvt               0                       # Class of executed instruction
system.switch_cpus.op_class::FloatMult              0                       # Class of executed instruction
system.switch_cpus.op_class::FloatMultAcc            0                       # Class of executed instruction
system.switch_cpus.op_class::FloatDiv               0                       # Class of executed instruction
system.switch_cpus.op_class::FloatMisc              0                       # Class of executed instruction
system.switch_cpus.op_class::FloatSqrt              0                       # Class of executed instruction
system.switch_cpus.op_class::SimdAdd                0                       # Class of executed instruction
system.switch_cpus.op_class::SimdAddAcc             0                       # Class of executed instruction
system.switch_cpus.op_class::SimdAlu                0                       # Class of executed instruction
system.switch_cpus.op_class::SimdCmp                0                       # Class of executed instruction
system.switch_cpus.op_class::SimdCvt                0                       # Class of executed instruction
system.switch_cpus.op_class::SimdMisc               0                       # Class of executed instruction
system.switch_cpus.op_class::SimdMult               0                       # Class of executed instruction
system.switch_cpus.op_class::SimdMultAcc            0                       # Class of executed instruction
system.switch_cpus.op_class::SimdShift              0                       # Class of executed instruction
system.switch_cpus.op_class::SimdShiftAcc            0                       # Class of executed instruction
system.switch_cpus.op_class::SimdDiv                0                       # Class of executed instruction
system.switch_cpus.op_class::SimdSqrt               0                       # Class of executed instruction
system.switch_cpus.op_class::SimdFloatAdd            0                       # Class of executed instruction
system.switch_cpus.op_class::SimdFloatAlu            0                       # Class of executed instruction
system.switch_cpus.op_class::SimdFloatCmp            0                       # Class of executed instruction
system.switch_cpus.op_class::SimdFloatCvt            0                       # Class of executed instruction
system.switch_cpus.op_class::SimdFloatDiv            0                       # Class of executed instruction
system.switch_cpus.op_class::SimdFloatMisc            0                       # Class of executed instruction
system.switch_cpus.op_class::SimdFloatMult            0                       # Class of executed instruction
system.switch_cpus.op_class::SimdFloatMultAcc            0                       # Class of executed instruction
system.switch_cpus.op_class::SimdFloatSqrt            0                       # Class of executed instruction
system.switch_cpus.op_class::SimdReduceAdd            0                       # Class of executed instruction
system.switch_cpus.op_class::SimdReduceAlu            0                       # Class of executed instruction
system.switch_cpus.op_class::SimdReduceCmp            0                       # Class of executed instruction
system.switch_cpus.op_class::SimdFloatReduceAdd            0                       # Class of executed instruction
system.switch_cpus.op_class::SimdFloatReduceCmp            0                       # Class of executed instruction
system.switch_cpus.op_class::SimdAes                0                       # Class of executed instruction
system.switch_cpus.op_class::SimdAesMix             0                       # Class of executed instruction
system.switch_cpus.op_class::SimdSha1Hash            0                       # Class of executed instruction
system.switch_cpus.op_class::SimdSha1Hash2            0                       # Class of executed instruction
system.switch_cpus.op_class::SimdSha256Hash            0                       # Class of executed instruction
system.switch_cpus.op_class::SimdSha256Hash2            0                       # Class of executed instruction
system.switch_cpus.op_class::SimdShaSigma2            0                       # Class of executed instruction
system.switch_cpus.op_class::SimdShaSigma3            0                       # Class of executed instruction
system.switch_cpus.op_class::SimdPredAlu            0                       # Class of executed instruction
system.switch_cpus.op_class::MemRead                0                       # Class of executed instruction
system.switch_cpus.op_class::MemWrite               0                       # Class of executed instruction
system.switch_cpus.op_class::FloatMemRead            0                       # Class of executed instruction
system.switch_cpus.op_class::FloatMemWrite            0                       # Class of executed instruction
system.switch_cpus.op_class::IprAccess              0                       # Class of executed instruction
system.switch_cpus.op_class::InstPrefetch            0                       # Class of executed instruction
system.switch_cpus.op_class::total                  0                       # Class of executed instruction
system.switch_cpus_1.branchPred.BTBCorrect            0                       # Number of correct BTB predictions (this stat may not work properly.
system.switch_cpus_1.branchPred.BTBHitPct          nan                       # BTB Hit Percentage
system.switch_cpus_1.branchPred.BTBHits             0                       # Number of BTB hits
system.switch_cpus_1.branchPred.BTBLookups            0                       # Number of BTB lookups
system.switch_cpus_1.branchPred.RASInCorrect         1845                       # Number of incorrect RAS predictions.
system.switch_cpus_1.branchPred.condIncorrect     82314623                       # Number of conditional branches incorrect
system.switch_cpus_1.branchPred.condPredicted   1103400526                       # Number of conditional branches predicted
system.switch_cpus_1.branchPred.indirectHits    289605838                       # Number of indirect target hits.
system.switch_cpus_1.branchPred.indirectLookups    618299169                       # Number of indirect predictor lookups.
system.switch_cpus_1.branchPred.indirectMisses    328693331                       # Number of indirect misses.
system.switch_cpus_1.branchPred.lookups    1206690142                       # Number of BP lookups
system.switch_cpus_1.branchPred.usedRAS      54675405                       # Number of times the RAS was used to get a target.
system.switch_cpus_1.branchPredindirectMispredicted     38288901                       # Number of mispredicted indirect branches.
system.switch_cpus_1.cc_regfile_reads      2066524364                       # number of cc regfile reads
system.switch_cpus_1.cc_regfile_writes     1347263445                       # number of cc regfile writes
system.switch_cpus_1.commit.amos                    0                       # Number of atomic instructions committed
system.switch_cpus_1.commit.branchMispredicts     82316818                       # The number of times a branch was mispredicted
system.switch_cpus_1.commit.branches        255270542                       # Number of branches committed
system.switch_cpus_1.commit.bw_lim_events     80359795                       # number cycles where commit BW limit reached
system.switch_cpus_1.commit.commitSquashedInsts   3518510447                       # The number of squashed insts skipped by commit
system.switch_cpus_1.commit.committedInsts   1000000000                       # Number of instructions committed
system.switch_cpus_1.commit.committedOps   1748593337                       # Number of ops (including micro ops) committed
system.switch_cpus_1.commit.committed_per_cycle::samples   6355510968                       # Number of insts commited each cycle
system.switch_cpus_1.commit.committed_per_cycle::mean     0.275130                       # Number of insts commited each cycle
system.switch_cpus_1.commit.committed_per_cycle::stdev     1.164912                       # Number of insts commited each cycle
system.switch_cpus_1.commit.committed_per_cycle::underflows            0      0.00%      0.00% # Number of insts commited each cycle
system.switch_cpus_1.commit.committed_per_cycle::0   5846218619     91.99%     91.99% # Number of insts commited each cycle
system.switch_cpus_1.commit.committed_per_cycle::1    164020682      2.58%     94.57% # Number of insts commited each cycle
system.switch_cpus_1.commit.committed_per_cycle::2     53854674      0.85%     95.41% # Number of insts commited each cycle
system.switch_cpus_1.commit.committed_per_cycle::3    111427089      1.75%     97.17% # Number of insts commited each cycle
system.switch_cpus_1.commit.committed_per_cycle::4     31351407      0.49%     97.66% # Number of insts commited each cycle
system.switch_cpus_1.commit.committed_per_cycle::5     40269629      0.63%     98.29% # Number of insts commited each cycle
system.switch_cpus_1.commit.committed_per_cycle::6     23113604      0.36%     98.66% # Number of insts commited each cycle
system.switch_cpus_1.commit.committed_per_cycle::7      4895469      0.08%     98.74% # Number of insts commited each cycle
system.switch_cpus_1.commit.committed_per_cycle::8     80359795      1.26%    100.00% # Number of insts commited each cycle
system.switch_cpus_1.commit.committed_per_cycle::overflows            0      0.00%    100.00% # Number of insts commited each cycle
system.switch_cpus_1.commit.committed_per_cycle::min_value            0                       # Number of insts commited each cycle
system.switch_cpus_1.commit.committed_per_cycle::max_value            8                       # Number of insts commited each cycle
system.switch_cpus_1.commit.committed_per_cycle::total   6355510968                       # Number of insts commited each cycle
system.switch_cpus_1.commit.fp_insts                0                       # Number of committed floating point instructions.
system.switch_cpus_1.commit.function_calls      1511731                       # Number of function calls committed.
system.switch_cpus_1.commit.int_insts      1743072331                       # Number of committed integer instructions.
system.switch_cpus_1.commit.loads           368544021                       # Number of loads committed
system.switch_cpus_1.commit.membars                 0                       # Number of memory barriers committed
system.switch_cpus_1.commit.op_class_0::No_OpClass      3188328      0.18%      0.18% # Class of committed instruction
system.switch_cpus_1.commit.op_class_0::IntAlu   1305809412     74.68%     74.86% # Class of committed instruction
system.switch_cpus_1.commit.op_class_0::IntMult        52800      0.00%     74.86% # Class of committed instruction
system.switch_cpus_1.commit.op_class_0::IntDiv            0      0.00%     74.86% # Class of committed instruction
system.switch_cpus_1.commit.op_class_0::FloatAdd            0      0.00%     74.86% # Class of committed instruction
system.switch_cpus_1.commit.op_class_0::FloatCmp            0      0.00%     74.86% # Class of committed instruction
system.switch_cpus_1.commit.op_class_0::FloatCvt            0      0.00%     74.86% # Class of committed instruction
system.switch_cpus_1.commit.op_class_0::FloatMult            0      0.00%     74.86% # Class of committed instruction
system.switch_cpus_1.commit.op_class_0::FloatMultAcc            0      0.00%     74.86% # Class of committed instruction
system.switch_cpus_1.commit.op_class_0::FloatDiv            0      0.00%     74.86% # Class of committed instruction
system.switch_cpus_1.commit.op_class_0::FloatMisc            0      0.00%     74.86% # Class of committed instruction
system.switch_cpus_1.commit.op_class_0::FloatSqrt            0      0.00%     74.86% # Class of committed instruction
system.switch_cpus_1.commit.op_class_0::SimdAdd            0      0.00%     74.86% # Class of committed instruction
system.switch_cpus_1.commit.op_class_0::SimdAddAcc            0      0.00%     74.86% # Class of committed instruction
system.switch_cpus_1.commit.op_class_0::SimdAlu            0      0.00%     74.86% # Class of committed instruction
system.switch_cpus_1.commit.op_class_0::SimdCmp            0      0.00%     74.86% # Class of committed instruction
system.switch_cpus_1.commit.op_class_0::SimdCvt            0      0.00%     74.86% # Class of committed instruction
system.switch_cpus_1.commit.op_class_0::SimdMisc            0      0.00%     74.86% # Class of committed instruction
system.switch_cpus_1.commit.op_class_0::SimdMult            0      0.00%     74.86% # Class of committed instruction
system.switch_cpus_1.commit.op_class_0::SimdMultAcc            0      0.00%     74.86% # Class of committed instruction
system.switch_cpus_1.commit.op_class_0::SimdShift            0      0.00%     74.86% # Class of committed instruction
system.switch_cpus_1.commit.op_class_0::SimdShiftAcc            0      0.00%     74.86% # Class of committed instruction
system.switch_cpus_1.commit.op_class_0::SimdDiv            0      0.00%     74.86% # Class of committed instruction
system.switch_cpus_1.commit.op_class_0::SimdSqrt            0      0.00%     74.86% # Class of committed instruction
system.switch_cpus_1.commit.op_class_0::SimdFloatAdd            0      0.00%     74.86% # Class of committed instruction
system.switch_cpus_1.commit.op_class_0::SimdFloatAlu            0      0.00%     74.86% # Class of committed instruction
system.switch_cpus_1.commit.op_class_0::SimdFloatCmp            0      0.00%     74.86% # Class of committed instruction
system.switch_cpus_1.commit.op_class_0::SimdFloatCvt            0      0.00%     74.86% # Class of committed instruction
system.switch_cpus_1.commit.op_class_0::SimdFloatDiv            0      0.00%     74.86% # Class of committed instruction
system.switch_cpus_1.commit.op_class_0::SimdFloatMisc            0      0.00%     74.86% # Class of committed instruction
system.switch_cpus_1.commit.op_class_0::SimdFloatMult            0      0.00%     74.86% # Class of committed instruction
system.switch_cpus_1.commit.op_class_0::SimdFloatMultAcc            0      0.00%     74.86% # Class of committed instruction
system.switch_cpus_1.commit.op_class_0::SimdFloatSqrt            0      0.00%     74.86% # Class of committed instruction
system.switch_cpus_1.commit.op_class_0::SimdReduceAdd            0      0.00%     74.86% # Class of committed instruction
system.switch_cpus_1.commit.op_class_0::SimdReduceAlu            0      0.00%     74.86% # Class of committed instruction
system.switch_cpus_1.commit.op_class_0::SimdReduceCmp            0      0.00%     74.86% # Class of committed instruction
system.switch_cpus_1.commit.op_class_0::SimdFloatReduceAdd            0      0.00%     74.86% # Class of committed instruction
system.switch_cpus_1.commit.op_class_0::SimdFloatReduceCmp            0      0.00%     74.86% # Class of committed instruction
system.switch_cpus_1.commit.op_class_0::SimdAes            0      0.00%     74.86% # Class of committed instruction
system.switch_cpus_1.commit.op_class_0::SimdAesMix            0      0.00%     74.86% # Class of committed instruction
system.switch_cpus_1.commit.op_class_0::SimdSha1Hash            0      0.00%     74.86% # Class of committed instruction
system.switch_cpus_1.commit.op_class_0::SimdSha1Hash2            0      0.00%     74.86% # Class of committed instruction
system.switch_cpus_1.commit.op_class_0::SimdSha256Hash            0      0.00%     74.86% # Class of committed instruction
system.switch_cpus_1.commit.op_class_0::SimdSha256Hash2            0      0.00%     74.86% # Class of committed instruction
system.switch_cpus_1.commit.op_class_0::SimdShaSigma2            0      0.00%     74.86% # Class of committed instruction
system.switch_cpus_1.commit.op_class_0::SimdShaSigma3            0      0.00%     74.86% # Class of committed instruction
system.switch_cpus_1.commit.op_class_0::SimdPredAlu            0      0.00%     74.86% # Class of committed instruction
system.switch_cpus_1.commit.op_class_0::MemRead    368544021     21.08%     95.94% # Class of committed instruction
system.switch_cpus_1.commit.op_class_0::MemWrite     70998776      4.06%    100.00% # Class of committed instruction
system.switch_cpus_1.commit.op_class_0::FloatMemRead            0      0.00%    100.00% # Class of committed instruction
system.switch_cpus_1.commit.op_class_0::FloatMemWrite            0      0.00%    100.00% # Class of committed instruction
system.switch_cpus_1.commit.op_class_0::IprAccess            0      0.00%    100.00% # Class of committed instruction
system.switch_cpus_1.commit.op_class_0::InstPrefetch            0      0.00%    100.00% # Class of committed instruction
system.switch_cpus_1.commit.op_class_0::total   1748593337                       # Class of committed instruction
system.switch_cpus_1.commit.refs            439542797                       # Number of memory references committed
system.switch_cpus_1.commit.swp_count               0                       # Number of s/w prefetches committed
system.switch_cpus_1.commit.vec_insts               0                       # Number of committed Vector instructions.
system.switch_cpus_1.committedInsts        1000000000                       # Number of Instructions Simulated
system.switch_cpus_1.committedOps          1748593337                       # Number of Ops (including micro ops) Simulated
system.switch_cpus_1.cpi                     6.923673                       # CPI: Cycles Per Instruction
system.switch_cpus_1.cpi_total               6.923673                       # CPI: Total CPI of All Threads
system.switch_cpus_1.decode.BlockedCycles   5733569550                       # Number of cycles decode is blocked
system.switch_cpus_1.decode.DecodedInsts   6592992636                       # Number of instructions handled by decode
system.switch_cpus_1.decode.IdleCycles      241428189                       # Number of cycles decode is idle
system.switch_cpus_1.decode.RunCycles       617976890                       # Number of cycles decode is running
system.switch_cpus_1.decode.SquashCycles     82660890                       # Number of cycles decode is squashing
system.switch_cpus_1.decode.UnblockCycles    247767754                       # Number of cycles decode is unblocking
system.switch_cpus_1.dtb.rdAccesses         767392783                       # TLB accesses on read requests
system.switch_cpus_1.dtb.rdMisses            92272306                       # TLB misses on read requests
system.switch_cpus_1.dtb.wrAccesses         156302698                       # TLB accesses on write requests
system.switch_cpus_1.dtb.wrMisses             1299798                       # TLB misses on write requests
system.switch_cpus_1.fetch.Branches        1206690142                       # Number of branches that fetch encountered
system.switch_cpus_1.fetch.CacheLines       496260818                       # Number of cache lines fetched
system.switch_cpus_1.fetch.Cycles          6775388110                       # Number of cycles fetch has run and was not squashing or blocked
system.switch_cpus_1.fetch.IcacheSquashes            3                       # Number of outstanding Icache misses that were squashed
system.switch_cpus_1.fetch.Insts           4888494563                       # Number of instructions fetch has processed
system.switch_cpus_1.fetch.ItlbSquashes            24                       # Number of outstanding ITLB misses that were squashed
system.switch_cpus_1.fetch.MiscStallCycles         1342                       # Number of cycles fetch has spent waiting on interrupts, or bad addresses, or out of MSHRs
system.switch_cpus_1.fetch.PendingTrapStallCycles       144246                       # Number of stall cycles due to pending traps
system.switch_cpus_1.fetch.SquashCycles     165321780                       # Number of cycles fetch has spent squashing
system.switch_cpus_1.fetch.TlbCycles             8127                       # Number of cycles fetch has spent waiting for tlb
system.switch_cpus_1.fetch.branchRate        0.174285                       # Number of branch fetches per cycle
system.switch_cpus_1.fetch.icacheStallCycles     65200564                       # Number of cycles fetch is stalled on an Icache miss
system.switch_cpus_1.fetch.predictedBranches    344281243                       # Number of branches that fetch has predicted taken
system.switch_cpus_1.fetch.rate              0.706055                       # Number of inst fetches per cycle
system.switch_cpus_1.fetch.rateDist::samples   6923403279                       # Number of instructions fetched each cycle (Total)
system.switch_cpus_1.fetch.rateDist::mean     1.254374                       # Number of instructions fetched each cycle (Total)
system.switch_cpus_1.fetch.rateDist::stdev     2.730552                       # Number of instructions fetched each cycle (Total)
system.switch_cpus_1.fetch.rateDist::underflows            0      0.00%      0.00% # Number of instructions fetched each cycle (Total)
system.switch_cpus_1.fetch.rateDist::0     5562891761     80.35%     80.35% # Number of instructions fetched each cycle (Total)
system.switch_cpus_1.fetch.rateDist::1       63669701      0.92%     81.27% # Number of instructions fetched each cycle (Total)
system.switch_cpus_1.fetch.rateDist::2       84933581      1.23%     82.50% # Number of instructions fetched each cycle (Total)
system.switch_cpus_1.fetch.rateDist::3       67823929      0.98%     83.48% # Number of instructions fetched each cycle (Total)
system.switch_cpus_1.fetch.rateDist::4       88892857      1.28%     84.76% # Number of instructions fetched each cycle (Total)
system.switch_cpus_1.fetch.rateDist::5      119863279      1.73%     86.49% # Number of instructions fetched each cycle (Total)
system.switch_cpus_1.fetch.rateDist::6       35003982      0.51%     87.00% # Number of instructions fetched each cycle (Total)
system.switch_cpus_1.fetch.rateDist::7      119975315      1.73%     88.73% # Number of instructions fetched each cycle (Total)
system.switch_cpus_1.fetch.rateDist::8      780348874     11.27%    100.00% # Number of instructions fetched each cycle (Total)
system.switch_cpus_1.fetch.rateDist::overflows            0      0.00%    100.00% # Number of instructions fetched each cycle (Total)
system.switch_cpus_1.fetch.rateDist::min_value            0                       # Number of instructions fetched each cycle (Total)
system.switch_cpus_1.fetch.rateDist::max_value            8                       # Number of instructions fetched each cycle (Total)
system.switch_cpus_1.fetch.rateDist::total   6923403279                       # Number of instructions fetched each cycle (Total)
system.switch_cpus_1.idleCycles                269787                       # Total number of cycles that the CPU has spent unscheduled due to idling
system.switch_cpus_1.iew.branchMispredicts    112529167                       # Number of branch mispredicts detected at execute
system.switch_cpus_1.iew.exec_branches      482769919                       # Number of branches executed
system.switch_cpus_1.iew.exec_nop                   0                       # number of nop insts executed
system.switch_cpus_1.iew.exec_rate           0.608491                       # Inst execution rate
system.switch_cpus_1.iew.exec_refs         1138493162                       # number of memory reference insts executed
system.switch_cpus_1.iew.exec_stores        156302698                       # Number of stores executed
system.switch_cpus_1.iew.exec_swp                   0                       # number of swp insts executed
system.switch_cpus_1.iew.iewBlockCycles    3351347227                       # Number of cycles IEW is blocking
system.switch_cpus_1.iew.iewDispLoadInsts   1004688754                       # Number of dispatched load instructions
system.switch_cpus_1.iew.iewDispNonSpecInsts            0                       # Number of dispatched non-speculative instructions
system.switch_cpus_1.iew.iewDispSquashedInsts      6318663                       # Number of squashed instructions skipped by dispatch
system.switch_cpus_1.iew.iewDispStoreInsts    276433943                       # Number of dispatched store instructions
system.switch_cpus_1.iew.iewDispatchedInsts   5262271317                       # Number of instructions dispatched to IQ
system.switch_cpus_1.iew.iewExecLoadInsts    982190464                       # Number of load instructions executed
system.switch_cpus_1.iew.iewExecSquashedInsts    201307828                       # Number of squashed instructions skipped in execute
system.switch_cpus_1.iew.iewExecutedInsts   4212991706                       # Number of executed instructions
system.switch_cpus_1.iew.iewIQFullEvents     25671552                       # Number of times the IQ has become full, causing a stall
system.switch_cpus_1.iew.iewIdleCycles              0                       # Number of cycles IEW is idle
system.switch_cpus_1.iew.iewLSQFullEvents    337668894                       # Number of times the LSQ has become full, causing a stall
system.switch_cpus_1.iew.iewSquashCycles     82660890                       # Number of cycles IEW is squashing
system.switch_cpus_1.iew.iewUnblockCycles    381497825                       # Number of cycles IEW is unblocking
system.switch_cpus_1.iew.lsq.thread0.blockedLoads            0                       # Number of blocked loads due to partial load-store forwarding
system.switch_cpus_1.iew.lsq.thread0.cacheBlocked     35316500                       # Number of times an access to memory failed due to the cache being blocked
system.switch_cpus_1.iew.lsq.thread0.forwLoads     17048143                       # Number of loads that had data forwarded from stores
system.switch_cpus_1.iew.lsq.thread0.ignoredResponses        58263                       # Number of memory responses ignored because the instruction is squashed
system.switch_cpus_1.iew.lsq.thread0.invAddrLoads            0                       # Number of loads ignored due to an invalid address
system.switch_cpus_1.iew.lsq.thread0.invAddrSwpfs            0                       # Number of software prefetches ignored due to an invalid address
system.switch_cpus_1.iew.lsq.thread0.memOrderViolation       413100                       # Number of memory ordering violations
system.switch_cpus_1.iew.lsq.thread0.rescheduledLoads            0                       # Number of loads that were rescheduled
system.switch_cpus_1.iew.lsq.thread0.squashedLoads    636144723                       # Number of loads squashed
system.switch_cpus_1.iew.lsq.thread0.squashedStores    205435165                       # Number of stores squashed
system.switch_cpus_1.iew.memOrderViolationEvents       413100                       # Number of memory order violations
system.switch_cpus_1.iew.predictedNotTakenIncorrect    100306758                       # Number of branches that were predicted not taken incorrectly
system.switch_cpus_1.iew.predictedTakenIncorrect     12222409                       # Number of branches that were predicted taken incorrectly
system.switch_cpus_1.iew.wb_consumers      4232996235                       # num instructions consuming a value
system.switch_cpus_1.iew.wb_count          3854524890                       # cumulative count of insts written-back
system.switch_cpus_1.iew.wb_fanout           0.666780                       # average fanout of values written-back
system.switch_cpus_1.iew.wb_producers      2822478947                       # num instructions producing a value
system.switch_cpus_1.iew.wb_rate             0.556717                       # insts written-back per cycle
system.switch_cpus_1.iew.wb_sent           3897203662                       # cumulative count of insts sent to commit
system.switch_cpus_1.int_regfile_reads     5371878005                       # number of integer regfile reads
system.switch_cpus_1.int_regfile_writes    3198970977                       # number of integer regfile writes
system.switch_cpus_1.ipc                     0.144432                       # IPC: Instructions Per Cycle
system.switch_cpus_1.ipc_total               0.144432                       # IPC: Total IPC of All Threads
system.switch_cpus_1.iq.FU_type_0::No_OpClass     35179066      0.80%      0.80% # Type of FU issued
system.switch_cpus_1.iq.FU_type_0::IntAlu   3181215735     72.07%     72.86% # Type of FU issued
system.switch_cpus_1.iq.FU_type_0::IntMult        76500      0.00%     72.86% # Type of FU issued
system.switch_cpus_1.iq.FU_type_0::IntDiv            0      0.00%     72.86% # Type of FU issued
system.switch_cpus_1.iq.FU_type_0::FloatAdd            0      0.00%     72.86% # Type of FU issued
system.switch_cpus_1.iq.FU_type_0::FloatCmp            0      0.00%     72.86% # Type of FU issued
system.switch_cpus_1.iq.FU_type_0::FloatCvt            0      0.00%     72.86% # Type of FU issued
system.switch_cpus_1.iq.FU_type_0::FloatMult            0      0.00%     72.86% # Type of FU issued
system.switch_cpus_1.iq.FU_type_0::FloatMultAcc            0      0.00%     72.86% # Type of FU issued
system.switch_cpus_1.iq.FU_type_0::FloatDiv            0      0.00%     72.86% # Type of FU issued
system.switch_cpus_1.iq.FU_type_0::FloatMisc            0      0.00%     72.86% # Type of FU issued
system.switch_cpus_1.iq.FU_type_0::FloatSqrt            0      0.00%     72.86% # Type of FU issued
system.switch_cpus_1.iq.FU_type_0::SimdAdd            0      0.00%     72.86% # Type of FU issued
system.switch_cpus_1.iq.FU_type_0::SimdAddAcc            0      0.00%     72.86% # Type of FU issued
system.switch_cpus_1.iq.FU_type_0::SimdAlu            0      0.00%     72.86% # Type of FU issued
system.switch_cpus_1.iq.FU_type_0::SimdCmp            0      0.00%     72.86% # Type of FU issued
system.switch_cpus_1.iq.FU_type_0::SimdCvt            0      0.00%     72.86% # Type of FU issued
system.switch_cpus_1.iq.FU_type_0::SimdMisc            0      0.00%     72.86% # Type of FU issued
system.switch_cpus_1.iq.FU_type_0::SimdMult            0      0.00%     72.86% # Type of FU issued
system.switch_cpus_1.iq.FU_type_0::SimdMultAcc            0      0.00%     72.86% # Type of FU issued
system.switch_cpus_1.iq.FU_type_0::SimdShift            0      0.00%     72.86% # Type of FU issued
system.switch_cpus_1.iq.FU_type_0::SimdShiftAcc            0      0.00%     72.86% # Type of FU issued
system.switch_cpus_1.iq.FU_type_0::SimdDiv            0      0.00%     72.86% # Type of FU issued
system.switch_cpus_1.iq.FU_type_0::SimdSqrt            0      0.00%     72.86% # Type of FU issued
system.switch_cpus_1.iq.FU_type_0::SimdFloatAdd            0      0.00%     72.86% # Type of FU issued
system.switch_cpus_1.iq.FU_type_0::SimdFloatAlu            0      0.00%     72.86% # Type of FU issued
system.switch_cpus_1.iq.FU_type_0::SimdFloatCmp            0      0.00%     72.86% # Type of FU issued
system.switch_cpus_1.iq.FU_type_0::SimdFloatCvt            0      0.00%     72.86% # Type of FU issued
system.switch_cpus_1.iq.FU_type_0::SimdFloatDiv            0      0.00%     72.86% # Type of FU issued
system.switch_cpus_1.iq.FU_type_0::SimdFloatMisc            0      0.00%     72.86% # Type of FU issued
system.switch_cpus_1.iq.FU_type_0::SimdFloatMult            0      0.00%     72.86% # Type of FU issued
system.switch_cpus_1.iq.FU_type_0::SimdFloatMultAcc            0      0.00%     72.86% # Type of FU issued
system.switch_cpus_1.iq.FU_type_0::SimdFloatSqrt            0      0.00%     72.86% # Type of FU issued
system.switch_cpus_1.iq.FU_type_0::SimdReduceAdd            0      0.00%     72.86% # Type of FU issued
system.switch_cpus_1.iq.FU_type_0::SimdReduceAlu            0      0.00%     72.86% # Type of FU issued
system.switch_cpus_1.iq.FU_type_0::SimdReduceCmp            0      0.00%     72.86% # Type of FU issued
system.switch_cpus_1.iq.FU_type_0::SimdFloatReduceAdd            0      0.00%     72.86% # Type of FU issued
system.switch_cpus_1.iq.FU_type_0::SimdFloatReduceCmp            0      0.00%     72.86% # Type of FU issued
system.switch_cpus_1.iq.FU_type_0::SimdAes            0      0.00%     72.86% # Type of FU issued
system.switch_cpus_1.iq.FU_type_0::SimdAesMix            0      0.00%     72.86% # Type of FU issued
system.switch_cpus_1.iq.FU_type_0::SimdSha1Hash            0      0.00%     72.86% # Type of FU issued
system.switch_cpus_1.iq.FU_type_0::SimdSha1Hash2            0      0.00%     72.86% # Type of FU issued
system.switch_cpus_1.iq.FU_type_0::SimdSha256Hash            0      0.00%     72.86% # Type of FU issued
system.switch_cpus_1.iq.FU_type_0::SimdSha256Hash2            0      0.00%     72.86% # Type of FU issued
system.switch_cpus_1.iq.FU_type_0::SimdShaSigma2            0      0.00%     72.86% # Type of FU issued
system.switch_cpus_1.iq.FU_type_0::SimdShaSigma3            0      0.00%     72.86% # Type of FU issued
system.switch_cpus_1.iq.FU_type_0::SimdPredAlu            0      0.00%     72.86% # Type of FU issued
system.switch_cpus_1.iq.FU_type_0::MemRead   1025547529     23.23%     96.10% # Type of FU issued
system.switch_cpus_1.iq.FU_type_0::MemWrite    172280708      3.90%    100.00% # Type of FU issued
system.switch_cpus_1.iq.FU_type_0::FloatMemRead            0      0.00%    100.00% # Type of FU issued
system.switch_cpus_1.iq.FU_type_0::FloatMemWrite            0      0.00%    100.00% # Type of FU issued
system.switch_cpus_1.iq.FU_type_0::IprAccess            0      0.00%    100.00% # Type of FU issued
system.switch_cpus_1.iq.FU_type_0::InstPrefetch            0      0.00%    100.00% # Type of FU issued
system.switch_cpus_1.iq.FU_type_0::total   4414299538                       # Type of FU issued
system.switch_cpus_1.iq.fp_alu_accesses             0                       # Number of floating point alu accesses
system.switch_cpus_1.iq.fp_inst_queue_reads            0                       # Number of floating instruction queue reads
system.switch_cpus_1.iq.fp_inst_queue_wakeup_accesses            0                       # Number of floating instruction queue wakeup accesses
system.switch_cpus_1.iq.fp_inst_queue_writes            0                       # Number of floating instruction queue writes
system.switch_cpus_1.iq.fu_busy_cnt         109701312                       # FU busy when requested
system.switch_cpus_1.iq.fu_busy_rate         0.024851                       # FU busy rate (busy events/executed inst)
system.switch_cpus_1.iq.fu_full::No_OpClass            0      0.00%      0.00% # attempts to use FU when none available
system.switch_cpus_1.iq.fu_full::IntAlu      61661566     56.21%     56.21% # attempts to use FU when none available
system.switch_cpus_1.iq.fu_full::IntMult            0      0.00%     56.21% # attempts to use FU when none available
system.switch_cpus_1.iq.fu_full::IntDiv             0      0.00%     56.21% # attempts to use FU when none available
system.switch_cpus_1.iq.fu_full::FloatAdd            0      0.00%     56.21% # attempts to use FU when none available
system.switch_cpus_1.iq.fu_full::FloatCmp            0      0.00%     56.21% # attempts to use FU when none available
system.switch_cpus_1.iq.fu_full::FloatCvt            0      0.00%     56.21% # attempts to use FU when none available
system.switch_cpus_1.iq.fu_full::FloatMult            0      0.00%     56.21% # attempts to use FU when none available
system.switch_cpus_1.iq.fu_full::FloatMultAcc            0      0.00%     56.21% # attempts to use FU when none available
system.switch_cpus_1.iq.fu_full::FloatDiv            0      0.00%     56.21% # attempts to use FU when none available
system.switch_cpus_1.iq.fu_full::FloatMisc            0      0.00%     56.21% # attempts to use FU when none available
system.switch_cpus_1.iq.fu_full::FloatSqrt            0      0.00%     56.21% # attempts to use FU when none available
system.switch_cpus_1.iq.fu_full::SimdAdd            0      0.00%     56.21% # attempts to use FU when none available
system.switch_cpus_1.iq.fu_full::SimdAddAcc            0      0.00%     56.21% # attempts to use FU when none available
system.switch_cpus_1.iq.fu_full::SimdAlu            0      0.00%     56.21% # attempts to use FU when none available
system.switch_cpus_1.iq.fu_full::SimdCmp            0      0.00%     56.21% # attempts to use FU when none available
system.switch_cpus_1.iq.fu_full::SimdCvt            0      0.00%     56.21% # attempts to use FU when none available
system.switch_cpus_1.iq.fu_full::SimdMisc            0      0.00%     56.21% # attempts to use FU when none available
system.switch_cpus_1.iq.fu_full::SimdMult            0      0.00%     56.21% # attempts to use FU when none available
system.switch_cpus_1.iq.fu_full::SimdMultAcc            0      0.00%     56.21% # attempts to use FU when none available
system.switch_cpus_1.iq.fu_full::SimdShift            0      0.00%     56.21% # attempts to use FU when none available
system.switch_cpus_1.iq.fu_full::SimdShiftAcc            0      0.00%     56.21% # attempts to use FU when none available
system.switch_cpus_1.iq.fu_full::SimdDiv            0      0.00%     56.21% # attempts to use FU when none available
system.switch_cpus_1.iq.fu_full::SimdSqrt            0      0.00%     56.21% # attempts to use FU when none available
system.switch_cpus_1.iq.fu_full::SimdFloatAdd            0      0.00%     56.21% # attempts to use FU when none available
system.switch_cpus_1.iq.fu_full::SimdFloatAlu            0      0.00%     56.21% # attempts to use FU when none available
system.switch_cpus_1.iq.fu_full::SimdFloatCmp            0      0.00%     56.21% # attempts to use FU when none available
system.switch_cpus_1.iq.fu_full::SimdFloatCvt            0      0.00%     56.21% # attempts to use FU when none available
system.switch_cpus_1.iq.fu_full::SimdFloatDiv            0      0.00%     56.21% # attempts to use FU when none available
system.switch_cpus_1.iq.fu_full::SimdFloatMisc            0      0.00%     56.21% # attempts to use FU when none available
system.switch_cpus_1.iq.fu_full::SimdFloatMult            0      0.00%     56.21% # attempts to use FU when none available
system.switch_cpus_1.iq.fu_full::SimdFloatMultAcc            0      0.00%     56.21% # attempts to use FU when none available
system.switch_cpus_1.iq.fu_full::SimdFloatSqrt            0      0.00%     56.21% # attempts to use FU when none available
system.switch_cpus_1.iq.fu_full::SimdReduceAdd            0      0.00%     56.21% # attempts to use FU when none available
system.switch_cpus_1.iq.fu_full::SimdReduceAlu            0      0.00%     56.21% # attempts to use FU when none available
system.switch_cpus_1.iq.fu_full::SimdReduceCmp            0      0.00%     56.21% # attempts to use FU when none available
system.switch_cpus_1.iq.fu_full::SimdFloatReduceAdd            0      0.00%     56.21% # attempts to use FU when none available
system.switch_cpus_1.iq.fu_full::SimdFloatReduceCmp            0      0.00%     56.21% # attempts to use FU when none available
system.switch_cpus_1.iq.fu_full::SimdAes            0      0.00%     56.21% # attempts to use FU when none available
system.switch_cpus_1.iq.fu_full::SimdAesMix            0      0.00%     56.21% # attempts to use FU when none available
system.switch_cpus_1.iq.fu_full::SimdSha1Hash            0      0.00%     56.21% # attempts to use FU when none available
system.switch_cpus_1.iq.fu_full::SimdSha1Hash2            0      0.00%     56.21% # attempts to use FU when none available
system.switch_cpus_1.iq.fu_full::SimdSha256Hash            0      0.00%     56.21% # attempts to use FU when none available
system.switch_cpus_1.iq.fu_full::SimdSha256Hash2            0      0.00%     56.21% # attempts to use FU when none available
system.switch_cpus_1.iq.fu_full::SimdShaSigma2            0      0.00%     56.21% # attempts to use FU when none available
system.switch_cpus_1.iq.fu_full::SimdShaSigma3            0      0.00%     56.21% # attempts to use FU when none available
system.switch_cpus_1.iq.fu_full::SimdPredAlu            0      0.00%     56.21% # attempts to use FU when none available
system.switch_cpus_1.iq.fu_full::MemRead     44936720     40.96%     97.17% # attempts to use FU when none available
system.switch_cpus_1.iq.fu_full::MemWrite      3103026      2.83%    100.00% # attempts to use FU when none available
system.switch_cpus_1.iq.fu_full::FloatMemRead            0      0.00%    100.00% # attempts to use FU when none available
system.switch_cpus_1.iq.fu_full::FloatMemWrite            0      0.00%    100.00% # attempts to use FU when none available
system.switch_cpus_1.iq.fu_full::IprAccess            0      0.00%    100.00% # attempts to use FU when none available
system.switch_cpus_1.iq.fu_full::InstPrefetch            0      0.00%    100.00% # attempts to use FU when none available
system.switch_cpus_1.iq.int_alu_accesses   4488821784                       # Number of integer alu accesses
system.switch_cpus_1.iq.int_inst_queue_reads  15947923229                       # Number of integer instruction queue reads
system.switch_cpus_1.iq.int_inst_queue_wakeup_accesses   3854524890                       # Number of integer instruction queue wakeup accesses
system.switch_cpus_1.iq.int_inst_queue_writes   8776307929                       # Number of integer instruction queue writes
system.switch_cpus_1.iq.iqInstsAdded       5262271317                       # Number of instructions added to the IQ (excludes non-spec)
system.switch_cpus_1.iq.iqInstsIssued      4414299538                       # Number of instructions issued
system.switch_cpus_1.iq.iqSquashedInstsExamined   3513677947                       # Number of squashed instructions iterated over during squash; mainly for profiling
system.switch_cpus_1.iq.iqSquashedInstsIssued     86219566                       # Number of squashed instructions issued
system.switch_cpus_1.iq.iqSquashedOperandsExamined   4809424887                       # Number of squashed operands that are examined and possibly removed from graph
system.switch_cpus_1.iq.issued_per_cycle::samples   6923403279                       # Number of insts issued each cycle
system.switch_cpus_1.iq.issued_per_cycle::mean     0.637591                       # Number of insts issued each cycle
system.switch_cpus_1.iq.issued_per_cycle::stdev     1.640395                       # Number of insts issued each cycle
system.switch_cpus_1.iq.issued_per_cycle::underflows            0      0.00%      0.00% # Number of insts issued each cycle
system.switch_cpus_1.iq.issued_per_cycle::0   5664256540     81.81%     81.81% # Number of insts issued each cycle
system.switch_cpus_1.iq.issued_per_cycle::1    325116816      4.70%     86.51% # Number of insts issued each cycle
system.switch_cpus_1.iq.issued_per_cycle::2    198645574      2.87%     89.38% # Number of insts issued each cycle
system.switch_cpus_1.iq.issued_per_cycle::3    158899346      2.30%     91.67% # Number of insts issued each cycle
system.switch_cpus_1.iq.issued_per_cycle::4    151295723      2.19%     93.86% # Number of insts issued each cycle
system.switch_cpus_1.iq.issued_per_cycle::5    141966154      2.05%     95.91% # Number of insts issued each cycle
system.switch_cpus_1.iq.issued_per_cycle::6    141397702      2.04%     97.95% # Number of insts issued each cycle
system.switch_cpus_1.iq.issued_per_cycle::7     82809730      1.20%     99.15% # Number of insts issued each cycle
system.switch_cpus_1.iq.issued_per_cycle::8     59015694      0.85%    100.00% # Number of insts issued each cycle
system.switch_cpus_1.iq.issued_per_cycle::overflows            0      0.00%    100.00% # Number of insts issued each cycle
system.switch_cpus_1.iq.issued_per_cycle::min_value            0                       # Number of insts issued each cycle
system.switch_cpus_1.iq.issued_per_cycle::max_value            8                       # Number of insts issued each cycle
system.switch_cpus_1.iq.issued_per_cycle::total   6923403279                       # Number of insts issued each cycle
system.switch_cpus_1.iq.rate                 0.637566                       # Inst issue rate
system.switch_cpus_1.iq.vec_alu_accesses            0                       # Number of vector alu accesses
system.switch_cpus_1.iq.vec_inst_queue_reads            0                       # Number of vector instruction queue reads
system.switch_cpus_1.iq.vec_inst_queue_wakeup_accesses            0                       # Number of vector instruction queue wakeup accesses
system.switch_cpus_1.iq.vec_inst_queue_writes            0                       # Number of vector instruction queue writes
system.switch_cpus_1.itb.rdAccesses                 0                       # TLB accesses on read requests
system.switch_cpus_1.itb.rdMisses                   0                       # TLB misses on read requests
system.switch_cpus_1.itb.wrAccesses         496274992                       # TLB accesses on write requests
system.switch_cpus_1.itb.wrMisses               14177                       # TLB misses on write requests
system.switch_cpus_1.memDep0.conflictingLoads     93809116                       # Number of conflicting loads.
system.switch_cpus_1.memDep0.conflictingStores     95587765                       # Number of conflicting stores.
system.switch_cpus_1.memDep0.insertedLoads   1004688754                       # Number of loads inserted to the mem dependence unit.
system.switch_cpus_1.memDep0.insertedStores    276433943                       # Number of stores inserted to the mem dependence unit.
system.switch_cpus_1.misc_regfile_reads    2324503315                       # number of misc regfile reads
system.switch_cpus_1.numCycles             6923673066                       # number of cpu cycles simulated
system.switch_cpus_1.numWorkItemsCompleted            0                       # number of work items this cpu completed
system.switch_cpus_1.numWorkItemsStarted            0                       # number of work items this cpu started
system.switch_cpus_1.rename.BlockCycles    4888843297                       # Number of cycles rename is blocking
system.switch_cpus_1.rename.CommittedMaps   2122688750                       # Number of HB maps that are committed
system.switch_cpus_1.rename.IQFullEvents    383535787                       # Number of times rename has blocked due to IQ full
system.switch_cpus_1.rename.IdleCycles      345025292                       # Number of cycles rename is idle
system.switch_cpus_1.rename.LQFullEvents    555324176                       # Number of times rename has blocked due to LQ full
system.switch_cpus_1.rename.ROBFullEvents     58314437                       # Number of times rename has blocked due to ROB full
system.switch_cpus_1.rename.RenameLookups  15587690815                       # Number of register rename lookups that rename has made
system.switch_cpus_1.rename.RenamedInsts   6066077434                       # Number of instructions processed by rename
system.switch_cpus_1.rename.RenamedOperands   7112188242                       # Number of destination operands rename has renamed
system.switch_cpus_1.rename.RunCycles       730859525                       # Number of cycles rename is running
system.switch_cpus_1.rename.SQFullEvents      9030581                       # Number of times rename has blocked due to SQ full
system.switch_cpus_1.rename.SquashCycles     82660890                       # Number of cycles rename is squashing
system.switch_cpus_1.rename.UnblockCycles    876014269                       # Number of cycles rename is unblocking
system.switch_cpus_1.rename.UndoneMaps     4989499428                       # Number of HB maps that are undone due to squashing
system.switch_cpus_1.rename.int_rename_lookups   8464885329                       # Number of integer rename lookups
system.switch_cpus_1.rename.serializeStallCycles            0                       # count of cycles rename stalled for serializing inst
system.switch_cpus_1.rename.serializingInsts            0                       # count of serializing insts renamed
system.switch_cpus_1.rename.skidInsts       969348204                       # count of insts added to the skid buffer
system.switch_cpus_1.rename.tempSerializingInsts            0                       # count of temporary serializing insts renamed
system.switch_cpus_1.rob.rob_reads        11542254957                       # The number of ROB reads
system.switch_cpus_1.rob.rob_writes       11109588913                       # The number of ROB writes
system.switch_cpus_1.timesIdled                  2400                       # Number of times that the entire CPU went into an idle state and unscheduled itself
system.tol2bus.snoop_filter.hit_multi_requests           57                       # Number of requests hitting in the snoop filter with multiple (>1) holders of the requested data.
system.tol2bus.snoop_filter.hit_multi_snoops            0                       # Number of snoops hitting in the snoop filter with multiple (>1) holders of the requested data.
system.tol2bus.snoop_filter.hit_single_requests    107113928                       # Number of requests hitting in the snoop filter with a single holder of the requested data.
system.tol2bus.snoop_filter.hit_single_snoops       207463                       # Number of snoops hitting in the snoop filter with a single holder of the requested data.
system.tol2bus.snoop_filter.tot_requests    211865820                       # Total number of requests made to the snoop filter.
system.tol2bus.snoop_filter.tot_snoops         207463                       # Total number of snoops made to the snoop filter.
system.tol3bus.snoop_filter.hit_multi_requests            0                       # Number of requests hitting in the snoop filter with multiple (>1) holders of the requested data.
system.tol3bus.snoop_filter.hit_multi_snoops            0                       # Number of snoops hitting in the snoop filter with multiple (>1) holders of the requested data.
system.tol3bus.snoop_filter.hit_single_requests     74638992                       # Number of requests hitting in the snoop filter with a single holder of the requested data.
system.tol3bus.snoop_filter.hit_single_snoops       559516                       # Number of snoops hitting in the snoop filter with a single holder of the requested data.
system.tol3bus.snoop_filter.tot_requests    149276801                       # Total number of requests made to the snoop filter.
system.tol3bus.snoop_filter.tot_snoops         559516                       # Total number of snoops made to the snoop filter.
system.membus.trans_dist::ReadResp           60822034                       # Transaction distribution
system.membus.trans_dist::WritebackDirty     15294233                       # Transaction distribution
system.membus.trans_dist::CleanEvict         46647166                       # Transaction distribution
system.membus.trans_dist::UpgradeReq                2                       # Transaction distribution
system.membus.trans_dist::ReadExReq           1119235                       # Transaction distribution
system.membus.trans_dist::ReadExResp          1119235                       # Transaction distribution
system.membus.trans_dist::ReadSharedReq      60822034                       # Transaction distribution
system.membus.pkt_count_system.l3.mem_side::system.mem_ctrls.port    185823939                       # Packet count per connected master and slave (bytes)
system.membus.pkt_count_system.l3.mem_side::total    185823939                       # Packet count per connected master and slave (bytes)
system.membus.pkt_count::total              185823939                       # Packet count per connected master and slave (bytes)
system.membus.pkt_size_system.l3.mem_side::system.mem_ctrls.port   4943072128                       # Cumulative packet size per connected master and slave (bytes)
system.membus.pkt_size_system.l3.mem_side::total   4943072128                       # Cumulative packet size per connected master and slave (bytes)
system.membus.pkt_size::total              4943072128                       # Cumulative packet size per connected master and slave (bytes)
system.membus.snoops                                0                       # Total snoops (count)
system.membus.snoopTraffic                          0                       # Total snoop traffic (bytes)
system.membus.snoop_fanout::samples          61941271                       # Request fanout histogram
system.membus.snoop_fanout::mean                    0                       # Request fanout histogram
system.membus.snoop_fanout::stdev                   0                       # Request fanout histogram
system.membus.snoop_fanout::underflows              0      0.00%      0.00% # Request fanout histogram
system.membus.snoop_fanout::0                61941271    100.00%    100.00% # Request fanout histogram
system.membus.snoop_fanout::1                       0      0.00%    100.00% # Request fanout histogram
system.membus.snoop_fanout::overflows               0      0.00%    100.00% # Request fanout histogram
system.membus.snoop_fanout::min_value               0                       # Request fanout histogram
system.membus.snoop_fanout::max_value               0                       # Request fanout histogram
system.membus.snoop_fanout::total            61941271                       # Request fanout histogram
system.membus.reqLayer2.occupancy        200132514500                       # Layer occupancy (ticks)
system.membus.reqLayer2.utilization               5.8                       # Layer utilization (%)
system.membus.respLayer1.occupancy       339114991750                       # Layer occupancy (ticks)
system.membus.respLayer1.utilization              9.8                       # Layer utilization (%)
system.membus.power_state.pwrStateResidencyTicks::UNDEFINED 5270911561500                       # Cumulative time (in ticks) in various power states
system.switch_cpus_1.dtb.walker.power_state.pwrStateResidencyTicks::UNDEFINED 5270911561500                       # Cumulative time (in ticks) in various power states
system.switch_cpus_1.itb.walker.power_state.pwrStateResidencyTicks::UNDEFINED 5270911561500                       # Cumulative time (in ticks) in various power states
system.switch_cpus_1.power_state.pwrStateResidencyTicks::OFF 5270911561500                       # Cumulative time (in ticks) in various power states
system.switch_cpus.dtb.walker.power_state.pwrStateResidencyTicks::UNDEFINED 5270911561500                       # Cumulative time (in ticks) in various power states
system.switch_cpus.itb.walker.power_state.pwrStateResidencyTicks::UNDEFINED 5270911561500                       # Cumulative time (in ticks) in various power states
system.switch_cpus.power_state.numTransitions            1                       # Number of power state transitions
system.switch_cpus.power_state.pwrStateResidencyTicks::OFF 5270911561500                       # Cumulative time (in ticks) in various power states
system.tol2bus.trans_dist::ReadResp         100371962                       # Transaction distribution
system.tol2bus.trans_dist::WritebackDirty     51816184                       # Transaction distribution
system.tol2bus.trans_dist::WritebackClean            3                       # Transaction distribution
system.tol2bus.trans_dist::CleanEvict       128174536                       # Transaction distribution
system.tol2bus.trans_dist::UpgradeReq         2362037                       # Transaction distribution
system.tol2bus.trans_dist::UpgradeResp        2362037                       # Transaction distribution
system.tol2bus.trans_dist::ReadExReq          4379929                       # Transaction distribution
system.tol2bus.trans_dist::ReadExResp         4379929                       # Transaction distribution
system.tol2bus.trans_dist::ReadCleanReq             3                       # Transaction distribution
system.tol2bus.trans_dist::ReadSharedReq    100371960                       # Transaction distribution
system.tol2bus.pkt_count_system.cpu.icache.mem_side::system.l2.cpu_side            9                       # Packet count per connected master and slave (bytes)
system.tol2bus.pkt_count_system.cpu.dcache.mem_side::system.l2.cpu_side    318979739                       # Packet count per connected master and slave (bytes)
system.tol2bus.pkt_count::total             318979748                       # Packet count per connected master and slave (bytes)
system.tol2bus.pkt_size_system.cpu.icache.mem_side::system.l2.cpu_side          384                       # Cumulative packet size per connected master and slave (bytes)
system.tol2bus.pkt_size_system.cpu.dcache.mem_side::system.l2.cpu_side   8660660352                       # Cumulative packet size per connected master and slave (bytes)
system.tol2bus.pkt_size::total             8660660736                       # Cumulative packet size per connected master and slave (bytes)
system.tol2bus.snoops                        75238832                       # Total snoops (count)
system.tol2bus.snoopTraffic                1359696256                       # Total snoop traffic (bytes)
system.tol2bus.snoop_fanout::samples        182352761                       # Request fanout histogram
system.tol2bus.snoop_fanout::mean            0.001138                       # Request fanout histogram
system.tol2bus.snoop_fanout::stdev           0.033715                       # Request fanout histogram
system.tol2bus.snoop_fanout::underflows             0      0.00%      0.00% # Request fanout histogram
system.tol2bus.snoop_fanout::0              182145241     99.89%     99.89% # Request fanout histogram
system.tol2bus.snoop_fanout::1                 207520      0.11%    100.00% # Request fanout histogram
system.tol2bus.snoop_fanout::2                      0      0.00%    100.00% # Request fanout histogram
system.tol2bus.snoop_fanout::3                      0      0.00%    100.00% # Request fanout histogram
system.tol2bus.snoop_fanout::4                      0      0.00%    100.00% # Request fanout histogram
system.tol2bus.snoop_fanout::overflows              0      0.00%    100.00% # Request fanout histogram
system.tol2bus.snoop_fanout::min_value              0                       # Request fanout histogram
system.tol2bus.snoop_fanout::max_value              1                       # Request fanout histogram
system.tol2bus.snoop_fanout::total          182352761                       # Request fanout histogram
system.tol2bus.reqLayer0.occupancy       136503843000                       # Layer occupancy (ticks)
system.tol2bus.reqLayer0.utilization              3.9                       # Layer utilization (%)
system.tol2bus.respLayer1.occupancy      158308850500                       # Layer occupancy (ticks)
system.tol2bus.respLayer1.utilization             4.6                       # Layer utilization (%)
system.tol2bus.respLayer0.occupancy              4500                       # Layer occupancy (ticks)
system.tol2bus.respLayer0.utilization             0.0                       # Layer utilization (%)
system.tol2bus.power_state.pwrStateResidencyTicks::UNDEFINED 5270911561500                       # Cumulative time (in ticks) in various power states
system.voltage_domain.voltage                       1                       # Voltage in Volts
system.clk_domain.clock                          1000                       # Clock period in ticks
system.l2.demand_hits::.switch_cpus_1.data     30114026                       # number of demand (read+write) hits
system.l2.demand_hits::total                 30114026                       # number of demand (read+write) hits
system.l2.overall_hits::.switch_cpus_1.data     30114026                       # number of overall hits
system.l2.overall_hits::total                30114026                       # number of overall hits
system.l2.demand_misses::.switch_cpus_1.inst            3                       # number of demand (read+write) misses
system.l2.demand_misses::.switch_cpus_1.data     74637863                       # number of demand (read+write) misses
system.l2.demand_misses::total               74637866                       # number of demand (read+write) misses
system.l2.overall_misses::.switch_cpus_1.inst            3                       # number of overall misses
system.l2.overall_misses::.switch_cpus_1.data     74637863                       # number of overall misses
system.l2.overall_misses::total              74637866                       # number of overall misses
system.l2.demand_miss_latency::.switch_cpus_1.inst       301000                       # number of demand (read+write) miss cycles
system.l2.demand_miss_latency::.switch_cpus_1.data 7090588741000                       # number of demand (read+write) miss cycles
system.l2.demand_miss_latency::total     7090589042000                       # number of demand (read+write) miss cycles
system.l2.overall_miss_latency::.switch_cpus_1.inst       301000                       # number of overall miss cycles
system.l2.overall_miss_latency::.switch_cpus_1.data 7090588741000                       # number of overall miss cycles
system.l2.overall_miss_latency::total    7090589042000                       # number of overall miss cycles
system.l2.demand_accesses::.switch_cpus_1.inst            3                       # number of demand (read+write) accesses
system.l2.demand_accesses::.switch_cpus_1.data    104751889                       # number of demand (read+write) accesses
system.l2.demand_accesses::total            104751892                       # number of demand (read+write) accesses
system.l2.overall_accesses::.switch_cpus_1.inst            3                       # number of overall (read+write) accesses
system.l2.overall_accesses::.switch_cpus_1.data    104751889                       # number of overall (read+write) accesses
system.l2.overall_accesses::total           104751892                       # number of overall (read+write) accesses
system.l2.demand_miss_rate::.switch_cpus_1.inst            1                       # miss rate for demand accesses
system.l2.demand_miss_rate::.switch_cpus_1.data     0.712520                       # miss rate for demand accesses
system.l2.demand_miss_rate::total            0.712520                       # miss rate for demand accesses
system.l2.overall_miss_rate::.switch_cpus_1.inst            1                       # miss rate for overall accesses
system.l2.overall_miss_rate::.switch_cpus_1.data     0.712520                       # miss rate for overall accesses
system.l2.overall_miss_rate::total           0.712520                       # miss rate for overall accesses
system.l2.demand_avg_miss_latency::.switch_cpus_1.inst 100333.333333                       # average overall miss latency
system.l2.demand_avg_miss_latency::.switch_cpus_1.data 94999.889547                       # average overall miss latency
system.l2.demand_avg_miss_latency::total 94999.889761                       # average overall miss latency
[...]
system.cpu.dcache.demand_accesses::.switch_cpus.data     43513985                       # number of demand (read+write) accesses
system.cpu.dcache.demand_accesses::.switch_cpus_1.data    783115230                       # number of demand (read+write) accesses
system.cpu.dcache.demand_accesses::total   1217200379                       # number of demand (read+write) accesses
system.cpu.dcache.overall_accesses::.cpu.data    390571164                       # number of overall (read+write) accesses
system.cpu.dcache.overall_accesses::.switch_cpus.data     43513985                       # number of overall (read+write) accesses
system.cpu.dcache.overall_accesses::.switch_cpus_1.data    783115230                       # number of overall (read+write) accesses
system.cpu.dcache.overall_accesses::total   1217200379                       # number of overall (read+write) accesses
system.cpu.dcache.demand_miss_rate::.cpu.data     0.139202                       # miss rate for demand accesses
system.cpu.dcache.demand_miss_rate::.switch_cpus.data     0.240724                       # miss rate for demand accesses
system.cpu.dcache.demand_miss_rate::.switch_cpus_1.data     0.337892                       # miss rate for demand accesses
system.cpu.dcache.demand_miss_rate::total     0.270663                       # miss rate for demand accesses
system.cpu.dcache.overall_miss_rate::.cpu.data     0.139202                       # miss rate for overall accesses
system.cpu.dcache.overall_miss_rate::.switch_cpus.data     0.240724                       # miss rate for overall accesses
system.cpu.dcache.overall_miss_rate::.switch_cpus_1.data     0.337892                       # miss rate for overall accesses
system.cpu.dcache.overall_miss_rate::total     0.270663                       # miss rate for overall accesses
system.cpu.dcache.demand_avg_miss_latency::.switch_cpus.data 63944.609915                       # average overall miss latency
system.cpu.dcache.demand_avg_miss_latency::.switch_cpus_1.data 69455.277705                       # average overall miss latency
system.cpu.dcache.demand_avg_miss_latency::total 57818.069615                       # average overall miss latency
system.cpu.dcache.overall_avg_miss_latency::.switch_cpus.data 63944.609915                       # average overall miss latency
system.cpu.dcache.overall_avg_miss_latency::.switch_cpus_1.data 69455.277705                       # average overall miss latency
system.cpu.dcache.overall_avg_miss_latency::total 57818.069615                       # average overall miss latency
system.cpu.dcache.blocked_cycles::no_mshrs   1375650828                       # number of cycles access was blocked
system.cpu.dcache.blocked_cycles::no_targets      6974604                       # number of cycles access was blocked
system.cpu.dcache.blocked::no_mshrs          38556969                       # number of cycles access was blocked
system.cpu.dcache.blocked::no_targets           66673                       # number of cycles access was blocked
system.cpu.dcache.avg_blocked_cycles::no_mshrs    35.678397                       # average number of cycles each access was blocked
system.cpu.dcache.avg_blocked_cycles::no_targets   104.609122                       # average number of cycles each access was blocked
system.cpu.dcache.writebacks::.writebacks     49188587                       # number of writebacks
system.cpu.dcache.writebacks::total          49188587                       # number of writebacks
system.cpu.dcache.demand_mshr_hits::.switch_cpus_1.data    157494774                       # number of demand (read+write) MSHR hits
system.cpu.dcache.demand_mshr_hits::total    157494774                       # number of demand (read+write) MSHR hits
system.cpu.dcache.overall_mshr_hits::.switch_cpus_1.data    157494774                       # number of overall MSHR hits
system.cpu.dcache.overall_mshr_hits::total    157494774                       # number of overall MSHR hits
system.cpu.dcache.demand_mshr_misses::.switch_cpus.data     10474853                       # number of demand (read+write) MSHR misses
system.cpu.dcache.demand_mshr_misses::.switch_cpus_1.data    107113496                       # number of demand (read+write) MSHR misses
system.cpu.dcache.demand_mshr_misses::total    117588349                       # number of demand (read+write) MSHR misses
system.cpu.dcache.overall_mshr_misses::.switch_cpus.data     10474853                       # number of overall MSHR misses
system.cpu.dcache.overall_mshr_misses::.switch_cpus_1.data    107113496                       # number of overall MSHR misses
system.cpu.dcache.overall_mshr_misses::total    117588349                       # number of overall MSHR misses
system.cpu.dcache.demand_mshr_miss_latency::.switch_cpus.data 664572962500                       # number of demand (read+write) MSHR miss cycles
system.cpu.dcache.demand_mshr_miss_latency::.switch_cpus_1.data 7393750618812                       # number of demand (read+write) MSHR miss cycles
system.cpu.dcache.demand_mshr_miss_latency::total 8058323581312                       # number of demand (read+write) MSHR miss cycles
system.cpu.dcache.overall_mshr_miss_latency::.switch_cpus.data 664572962500                       # number of overall MSHR miss cycles
system.cpu.dcache.overall_mshr_miss_latency::.switch_cpus_1.data 7393750618812                       # number of overall MSHR miss cycles
system.cpu.dcache.overall_mshr_miss_latency::total 8058323581312                       # number of overall MSHR miss cycles
system.cpu.dcache.demand_mshr_miss_rate::.switch_cpus.data     0.240724                       # mshr miss rate for demand accesses
system.cpu.dcache.demand_mshr_miss_rate::.switch_cpus_1.data     0.136779                       # mshr miss rate for demand accesses
system.cpu.dcache.demand_mshr_miss_rate::total     0.096606                       # mshr miss rate for demand accesses
system.cpu.dcache.overall_mshr_miss_rate::.switch_cpus.data     0.240724                       # mshr miss rate for overall accesses
system.cpu.dcache.overall_mshr_miss_rate::.switch_cpus_1.data     0.136779                       # mshr miss rate for overall accesses
system.cpu.dcache.overall_mshr_miss_rate::total     0.096606                       # mshr miss rate for overall accesses
system.cpu.dcache.demand_avg_mshr_miss_latency::.switch_cpus.data 63444.609915                       # average overall mshr miss latency
system.cpu.dcache.demand_avg_mshr_miss_latency::.switch_cpus_1.data 69027.255154                       # average overall mshr miss latency
system.cpu.dcache.demand_avg_mshr_miss_latency::total 68529.949182                       # average overall mshr miss latency
system.cpu.dcache.overall_avg_mshr_miss_latency::.switch_cpus.data 63444.609915                       # average overall mshr miss latency
system.cpu.dcache.overall_avg_mshr_miss_latency::.switch_cpus_1.data 69027.255154                       # average overall mshr miss latency
system.cpu.dcache.overall_avg_mshr_miss_latency::total 68529.949182                       # average overall mshr miss latency
system.cpu.dcache.replacements              169319527                       # number of replacements
system.cpu.dcache.ReadReq_hits::.cpu.data    234488627                       # number of ReadReq hits
system.cpu.dcache.ReadReq_hits::.switch_cpus.data     26813871                       # number of ReadReq hits
system.cpu.dcache.ReadReq_hits::.switch_cpus_1.data    454257489                       # number of ReadReq hits
system.cpu.dcache.ReadReq_hits::total       715559987                       # number of ReadReq hits
system.cpu.dcache.ReadReq_misses::.cpu.data     52363197                       # number of ReadReq misses
system.cpu.dcache.ReadReq_misses::.switch_cpus.data      9821521                       # number of ReadReq misses
system.cpu.dcache.ReadReq_misses::.switch_cpus_1.data    257858965                       # number of ReadReq misses
system.cpu.dcache.ReadReq_misses::total     320043683                       # number of ReadReq misses
system.cpu.dcache.ReadReq_miss_latency::.switch_cpus.data 657828454500                       # number of ReadReq miss cycles
system.cpu.dcache.ReadReq_miss_latency::.switch_cpus_1.data 18224477760500                       # number of ReadReq miss cycles
system.cpu.dcache.ReadReq_miss_latency::total 18882306215000                       # number of ReadReq miss cycles
system.cpu.dcache.ReadReq_accesses::.cpu.data    286851824                       # number of ReadReq accesses(hits+misses)
system.cpu.dcache.ReadReq_accesses::.switch_cpus.data     36635392                       # number of ReadReq accesses(hits+misses)
system.cpu.dcache.ReadReq_accesses::.switch_cpus_1.data    712116454                       # number of ReadReq accesses(hits+misses)
system.cpu.dcache.ReadReq_accesses::total   1035603670                       # number of ReadReq accesses(hits+misses)
system.cpu.dcache.ReadReq_miss_rate::.cpu.data     0.182544                       # miss rate for ReadReq accesses
system.cpu.dcache.ReadReq_miss_rate::.switch_cpus.data     0.268088                       # miss rate for ReadReq accesses
system.cpu.dcache.ReadReq_miss_rate::.switch_cpus_1.data     0.362102                       # miss rate for ReadReq accesses
system.cpu.dcache.ReadReq_miss_rate::total     0.309041                       # miss rate for ReadReq accesses
system.cpu.dcache.ReadReq_avg_miss_latency::.switch_cpus.data 66978.266859                       # average ReadReq miss latency
system.cpu.dcache.ReadReq_avg_miss_latency::.switch_cpus_1.data 70676.145623                       # average ReadReq miss latency
system.cpu.dcache.ReadReq_avg_miss_latency::total 58999.152984                       # average ReadReq miss latency
system.cpu.dcache.ReadReq_mshr_hits::.switch_cpus_1.data    157483426                       # number of ReadReq MSHR hits
system.cpu.dcache.ReadReq_mshr_hits::total    157483426                       # number of ReadReq MSHR hits
system.cpu.dcache.ReadReq_mshr_misses::.switch_cpus.data      9821521                       # number of ReadReq MSHR misses
system.cpu.dcache.ReadReq_mshr_misses::.switch_cpus_1.data    100375539                       # number of ReadReq MSHR misses
system.cpu.dcache.ReadReq_mshr_misses::total    110197060                       # number of ReadReq MSHR misses
system.cpu.dcache.ReadReq_mshr_miss_latency::.switch_cpus.data 652917694000                       # number of ReadReq MSHR miss cycles
system.cpu.dcache.ReadReq_mshr_miss_latency::.switch_cpus_1.data 7243422679500                       # number of ReadReq MSHR miss cycles
system.cpu.dcache.ReadReq_mshr_miss_latency::total 7896340373500                       # number of ReadReq MSHR miss cycles
system.cpu.dcache.ReadReq_mshr_miss_rate::.switch_cpus.data     0.268088                       # mshr miss rate for ReadReq accesses
system.cpu.dcache.ReadReq_mshr_miss_rate::.switch_cpus_1.data     0.140954                       # mshr miss rate for ReadReq accesses
system.cpu.dcache.ReadReq_mshr_miss_rate::total     0.106409                       # mshr miss rate for ReadReq accesses
system.cpu.dcache.ReadReq_avg_mshr_miss_latency::.switch_cpus.data 66478.266859                       # average ReadReq mshr miss latency
system.cpu.dcache.ReadReq_avg_mshr_miss_latency::.switch_cpus_1.data 72163.225739                       # average ReadReq mshr miss latency
system.cpu.dcache.ReadReq_avg_mshr_miss_latency::total 71656.543047                       # average ReadReq mshr miss latency
system.cpu.dcache.WriteReq_hits::.cpu.data    101714134                       # number of WriteReq hits
system.cpu.dcache.WriteReq_hits::.switch_cpus.data      6225261                       # number of WriteReq hits
system.cpu.dcache.WriteReq_hits::.switch_cpus_1.data     64249471                       # number of WriteReq hits
system.cpu.dcache.WriteReq_hits::total      172188866                       # number of WriteReq hits
system.cpu.dcache.WriteReq_misses::.cpu.data      2005206                       # number of WriteReq misses
system.cpu.dcache.WriteReq_misses::.switch_cpus.data       653332                       # number of WriteReq misses
system.cpu.dcache.WriteReq_misses::.switch_cpus_1.data      6749305                       # number of WriteReq misses
system.cpu.dcache.WriteReq_misses::total      9407843                       # number of WriteReq misses
system.cpu.dcache.WriteReq_miss_latency::.switch_cpus.data  11981934500                       # number of WriteReq miss cycles
system.cpu.dcache.WriteReq_miss_latency::.switch_cpus_1.data 153963115497                       # number of WriteReq miss cycles
system.cpu.dcache.WriteReq_miss_latency::total 165945049997                       # number of WriteReq miss cycles
system.cpu.dcache.WriteReq_accesses::.cpu.data    103719340                       # number of WriteReq accesses(hits+misses)
system.cpu.dcache.WriteReq_accesses::.switch_cpus.data      6878593                       # number of WriteReq accesses(hits+misses)
system.cpu.dcache.WriteReq_accesses::.switch_cpus_1.data     70998776                       # number of WriteReq accesses(hits+misses)
system.cpu.dcache.WriteReq_accesses::total    181596709                       # number of WriteReq accesses(hits+misses)
system.cpu.dcache.WriteReq_miss_rate::.cpu.data     0.019333                       # miss rate for WriteReq accesses
system.cpu.dcache.WriteReq_miss_rate::.switch_cpus.data     0.094980                       # miss rate for WriteReq accesses
system.cpu.dcache.WriteReq_miss_rate::.switch_cpus_1.data     0.095062                       # miss rate for WriteReq accesses
system.cpu.dcache.WriteReq_miss_rate::total     0.051806                       # miss rate for WriteReq accesses
system.cpu.dcache.WriteReq_avg_miss_latency::.switch_cpus.data 18339.733091                       # average WriteReq miss latency
system.cpu.dcache.WriteReq_avg_miss_latency::.switch_cpus_1.data 22811.699204                       # average WriteReq miss latency
system.cpu.dcache.WriteReq_avg_miss_latency::total 17639.011408                       # average WriteReq miss latency
system.cpu.dcache.WriteReq_mshr_hits::.switch_cpus_1.data        11348                       # number of WriteReq MSHR hits
system.cpu.dcache.WriteReq_mshr_hits::total        11348                       # number of WriteReq MSHR hits
system.cpu.dcache.WriteReq_mshr_misses::.switch_cpus.data       653332                       # number of WriteReq MSHR misses
system.cpu.dcache.WriteReq_mshr_misses::.switch_cpus_1.data      6737957                       # number of WriteReq MSHR misses
system.cpu.dcache.WriteReq_mshr_misses::total      7391289                       # number of WriteReq MSHR misses
system.cpu.dcache.WriteReq_mshr_miss_latency::.switch_cpus.data  11655268500                       # number of WriteReq MSHR miss cycles
system.cpu.dcache.WriteReq_mshr_miss_latency::.switch_cpus_1.data 150327939312                       # number of WriteReq MSHR miss cycles
system.cpu.dcache.WriteReq_mshr_miss_latency::total 161983207812                       # number of WriteReq MSHR miss cycles
system.cpu.dcache.WriteReq_mshr_miss_rate::.switch_cpus.data     0.094980                       # mshr miss rate for WriteReq accesses
system.cpu.dcache.WriteReq_mshr_miss_rate::.switch_cpus_1.data     0.094902                       # mshr miss rate for WriteReq accesses
system.cpu.dcache.WriteReq_mshr_miss_rate::total     0.040702                       # mshr miss rate for WriteReq accesses
system.cpu.dcache.WriteReq_avg_mshr_miss_latency::.switch_cpus.data 17839.733091                       # average WriteReq mshr miss latency
system.cpu.dcache.WriteReq_avg_mshr_miss_latency::.switch_cpus_1.data 22310.611260                       # average WriteReq mshr miss latency
system.cpu.dcache.WriteReq_avg_mshr_miss_latency::total 21915.420681                       # average WriteReq mshr miss latency
system.cpu.dcache.power_state.pwrStateResidencyTicks::UNDEFINED 5270911561500                       # Cumulative time (in ticks) in various power states
system.cpu.dcache.tags.tagsinuse           511.998806                       # Cycle average of tags in use
system.cpu.dcache.tags.total_refs          1059946600                       # Total number of references to valid blocks.
system.cpu.dcache.tags.sampled_refs         169320039                       # Sample count of references to valid blocks.
system.cpu.dcache.tags.avg_refs              6.260019                       # Average number of references to valid blocks.
system.cpu.dcache.tags.warmup_cycle              1500                       # Cycle when the warmup percentage was hit.
system.cpu.dcache.tags.occ_blocks::.cpu.data   103.036236                       # Average occupied blocks per requestor
system.cpu.dcache.tags.occ_blocks::.switch_cpus.data    72.692549                       # Average occupied blocks per requestor
system.cpu.dcache.tags.occ_blocks::.switch_cpus_1.data   336.270021                       # Average occupied blocks per requestor
system.cpu.dcache.tags.occ_percent::.cpu.data     0.201243                       # Average percentage of cache occupancy
system.cpu.dcache.tags.occ_percent::.switch_cpus.data     0.141978                       # Average percentage of cache occupancy
system.cpu.dcache.tags.occ_percent::.switch_cpus_1.data     0.656777                       # Average percentage of cache occupancy
system.cpu.dcache.tags.occ_percent::total     0.999998                       # Average percentage of cache occupancy
system.cpu.dcache.tags.occ_task_id_blocks::1024          512                       # Occupied blocks per task id
system.cpu.dcache.tags.age_task_id_blocks_1024::0          172                       # Occupied blocks per task id
system.cpu.dcache.tags.age_task_id_blocks_1024::1          326                       # Occupied blocks per task id
system.cpu.dcache.tags.age_task_id_blocks_1024::2           10                       # Occupied blocks per task id
system.cpu.dcache.tags.age_task_id_blocks_1024::3            4                       # Occupied blocks per task id
system.cpu.dcache.tags.occ_task_id_percent::1024            1                       # Percentage of cache occupancy per task id
system.cpu.dcache.tags.tag_accesses        5038121555                       # Number of tag accesses
system.cpu.dcache.tags.data_accesses       5038121555                       # Number of data accesses
system.cpu.dcache.tags.cache_friendly               0                       # Number of cache friendly accesses
system.cpu.dcache.tags.cache_averse        1059946600                       # Number of cache averse accesses
system.cpu.dcache.tags.cache_friendly_victims            0                       # Number of cache friendly victims
system.cpu.dcache.tags.cache_averse_victims    169320039                       # Number of cache averse victims
system.cpu.dcache.tags.OPT_hits                     0                       # Number of OPT hits
system.cpu.dcache.tags.OPT_misses                   0                       # Number of OPT misses
system.cpu.dcache.tags.OPT_nan             1217200379                       # Number of OPT nan
system.cpu.dcache.tags.power_state.pwrStateResidencyTicks::UNDEFINED 5270911561500                       # Cumulative time (in ticks) in various power states
system.cpu.power_state.numTransitions               2                       # Number of power state transitions
system.cpu.power_state.pwrStateResidencyTicks::ON 1060722694500                       # Cumulative time (in ticks) in various power states
system.cpu.power_state.pwrStateResidencyTicks::OFF 4210188867000                       # Cumulative time (in ticks) in various power states

---------- End Simulation Statistics   ----------
