
---------- Begin Simulation Statistics ----------
final_tick                               1361515270500                       # Number of ticks from beginning of simulation (restored from checkpoints and never reset)
host_inst_rate                                 279620                       # Simulator instruction rate (inst/s)
host_mem_usage                                 873844                       # Number of bytes of host memory used
host_op_rate                                   473877                       # Simulator op (including micro ops) rate (op/s)
host_seconds                                  5006.21                       # Real time elapsed on the host
host_tick_rate                               42464027                       # Simulator tick rate (ticks/s)
sim_freq                                 1000000000000                       # Frequency of simulated ticks
sim_insts                                  1399837591                       # Number of instructions simulated
sim_ops                                    2372328828                       # Number of ops (including micro ops) simulated
sim_seconds                                  0.212584                       # Number of seconds simulated
sim_ticks                                212583888750                       # Number of ticks simulated
system.cpu.committedInsts                           0                       # Number of instructions committed
system.cpu.committedOps                             0                       # Number of ops (including micro ops) committed
system.cpu.dtb.rdAccesses                           0                       # TLB accesses on read requests
system.cpu.dtb.rdMisses                             0                       # TLB misses on read requests
system.cpu.dtb.wrAccesses                           0                       # TLB accesses on write requests
system.cpu.dtb.wrMisses                             0                       # TLB misses on write requests
system.cpu.idle_fraction                            0                       # Percentage of idle cycles
system.cpu.itb.rdAccesses                           0                       # TLB accesses on read requests
system.cpu.itb.rdMisses                             0                       # TLB misses on read requests
system.cpu.itb.wrAccesses                           0                       # TLB accesses on write requests
system.cpu.itb.wrMisses                             0                       # TLB misses on write requests
system.cpu.not_idle_fraction                        1                       # Percentage of non-idle cycles
system.cpu.numCycles                                0                       # number of cpu cycles simulated
system.cpu.numWorkItemsCompleted                    0                       # number of work items this cpu completed
system.cpu.numWorkItemsStarted                      0                       # number of work items this cpu started
system.cpu.num_busy_cycles                          0                       # Number of busy cycles
system.cpu.num_conditional_control_insts            0                       # number of instructions that are conditional controls
system.cpu.num_fp_alu_accesses                      0                       # Number of float alu accesses
system.cpu.num_fp_insts                             0                       # number of float instructions
system.cpu.num_fp_register_reads                    0                       # number of times the floating registers were read
system.cpu.num_fp_register_writes                   0                       # number of times the floating registers were written
system.cpu.num_func_calls                           0                       # number of times a function call or return occured
system.cpu.num_idle_cycles                          0                       # Number of idle cycles
system.cpu.num_int_alu_accesses                     0                       # Number of integer alu accesses
system.cpu.num_int_insts                            0                       # number of integer instructions
system.cpu.num_int_register_reads                   0                       # number of times the integer registers were read
system.cpu.num_int_register_writes                  0                       # number of times the integer registers were written
system.cpu.num_load_insts                           0                       # Number of load instructions
system.cpu.num_mem_refs                             0                       # number of memory refs
system.cpu.num_store_insts                          0                       # Number of store instructions
system.cpu.num_vec_alu_accesses                     0                       # Number of vector alu accesses
system.cpu.num_vec_insts                            0                       # number of vector instructions
system.cpu.num_vec_register_reads                   0                       # number of times the vector registers were read
system.cpu.num_vec_register_writes                  0                       # number of times the vector registers were written
system.cpu.op_class::No_OpClass                     0                       # Class of executed instruction
system.cpu.op_class::IntAlu                         0                       # Class of executed instruction
system.cpu.op_class::IntMult                        0                       # Class of executed instruction
system.cpu.op_class::IntDiv                         0                       # Class of executed instruction
system.cpu.op_class::FloatAdd                       0                       # Class of executed instruction
system.cpu.op_class::FloatCmp                       0                       # Class of executed instruction
system.cpu.op_class::FloatCvt                       0                       # Class of executed instruction
system.cpu.op_class::FloatMult                      0                       # Class of executed instruction
system.cpu.op_class::FloatMultAcc                   0                       # Class of executed instruction
system.cpu.op_class::FloatDiv                       0                       # Class of executed instruction
system.cpu.op_class::FloatMisc                      0                       # Class of executed instruction
system.cpu.op_class::FloatSqrt                      0                       # Class of executed instruction
system.cpu.op_class::SimdAdd                        0                       # Class of executed instruction
system.cpu.op_class::SimdAddAcc                     0                       # Class of executed instruction
system.cpu.op_class::SimdAlu                        0                       # Class of executed instruction
system.cpu.op_class::SimdCmp                        0                       # Class of executed instruction
system.cpu.op_class::SimdCvt                        0                       # Class of executed instruction
system.cpu.op_class::SimdMisc                       0                       # Class of executed instruction
system.cpu.op_class::SimdMult                       0                       # Class of executed instruction
system.cpu.op_class::SimdMultAcc                    0                       # Class of executed instruction
system.cpu.op_class::SimdShift                      0                       # Class of executed instruction
system.cpu.op_class::SimdShiftAcc                   0                       # Class of executed instruction
system.cpu.op_class::SimdDiv                        0                       # Class of executed instruction
system.cpu.op_class::SimdSqrt                       0                       # Class of executed instruction
system.cpu.op_class::SimdFloatAdd                   0                       # Class of executed instruction
system.cpu.op_class::SimdFloatAlu                   0                       # Class of executed instruction
system.cpu.op_class::SimdFloatCmp                   0                       # Class of executed instruction
system.cpu.op_class::SimdFloatCvt                   0                       # Class of executed instruction
system.cpu.op_class::SimdFloatDiv                   0                       # Class of executed instruction
system.cpu.op_class::SimdFloatMisc                  0                       # Class of executed instruction
system.cpu.op_class::SimdFloatMult                  0                       # Class of executed instruction
system.cpu.op_class::SimdFloatMultAcc               0                       # Class of executed instruction
system.cpu.op_class::SimdFloatSqrt                  0                       # Class of executed instruction
system.cpu.op_class::SimdReduceAdd                  0                       # Class of executed instruction
system.cpu.op_class::SimdReduceAlu                  0                       # Class of executed instruction
system.cpu.op_class::SimdReduceCmp                  0                       # Class of executed instruction
system.cpu.op_class::SimdFloatReduceAdd             0                       # Class of executed instruction
system.cpu.op_class::SimdFloatReduceCmp             0                       # Class of executed instruction
system.cpu.op_class::SimdAes                        0                       # Class of executed instruction
system.cpu.op_class::SimdAesMix                     0                       # Class of executed instruction
system.cpu.op_class::SimdSha1Hash                   0                       # Class of executed instruction
system.cpu.op_class::SimdSha1Hash2                  0                       # Class of executed instruction
system.cpu.op_class::SimdSha256Hash                 0                       # Class of executed instruction
system.cpu.op_class::SimdSha256Hash2                0                       # Class of executed instruction
system.cpu.op_class::SimdShaSigma2                  0                       # Class of executed instruction
system.cpu.op_class::SimdShaSigma3                  0                       # Class of executed instruction
system.cpu.op_class::SimdPredAlu                    0                       # Class of executed instruction
system.cpu.op_class::MemRead                        0                       # Class of executed instruction
system.cpu.op_class::MemWrite                       0                       # Class of executed instruction
system.cpu.op_class::FloatMemRead                   0                       # Class of executed instruction
system.cpu.op_class::FloatMemWrite                  0                       # Class of executed instruction
system.cpu.op_class::IprAccess                      0                       # Class of executed instruction
system.cpu.op_class::InstPrefetch                   0                       # Class of executed instruction
system.cpu.op_class::total                          0                       # Class of executed instruction
system.cpu.workload.numSyscalls                     6                       # Number of system calls
system.membus.snoop_filter.hit_multi_requests            0                       # Number of requests hitting in the snoop filter with multiple (>1) holders of the requested data.
system.membus.snoop_filter.hit_multi_snoops            0                       # Number of snoops hitting in the snoop filter with multiple (>1) holders of the requested data.
system.membus.snoop_filter.hit_single_requests       759572                       # Number of requests hitting in the snoop filter with a single holder of the requested data.
system.membus.snoop_filter.hit_single_snoops            0                       # Number of snoops hitting in the snoop filter with a single holder of the requested data.
system.membus.snoop_filter.tot_requests       1519069                       # Total number of requests made to the snoop filter.
system.membus.snoop_filter.tot_snoops               0                       # Total number of snoops made to the snoop filter.
system.switch_cpus.committedInsts                   0                       # Number of instructions committed
system.switch_cpus.committedOps                     0                       # Number of ops (including micro ops) committed
system.switch_cpus.dtb.rdAccesses                   0                       # TLB accesses on read requests
system.switch_cpus.dtb.rdMisses                     0                       # TLB misses on read requests
system.switch_cpus.dtb.wrAccesses                   0                       # TLB accesses on write requests
system.switch_cpus.dtb.wrMisses                     0                       # TLB misses on write requests
system.switch_cpus.idle_fraction                    0                       # Percentage of idle cycles
system.switch_cpus.itb.rdAccesses                   0                       # TLB accesses on read requests
system.switch_cpus.itb.rdMisses                     0                       # TLB misses on read requests
system.switch_cpus.itb.wrAccesses                   0                       # TLB accesses on write requests
system.switch_cpus.itb.wrMisses                     0                       # TLB misses on write requests
system.switch_cpus.not_idle_fraction                1                       # Percentage of non-idle cycles
system.switch_cpus.numCycles                        0                       # number of cpu cycles simulated
system.switch_cpus.numWorkItemsCompleted            0                       # number of work items this cpu completed
system.switch_cpus.numWorkItemsStarted              0                       # number of work items this cpu started
system.switch_cpus.num_busy_cycles                  0                       # Number of busy cycles
system.switch_cpus.num_conditional_control_insts            0                       # number of instructions that are conditional controls
system.switch_cpus.num_fp_alu_accesses              0                       # Number of float alu accesses
system.switch_cpus.num_fp_insts                     0                       # number of float instructions
system.switch_cpus.num_fp_register_reads            0                       # number of times the floating registers were read
system.switch_cpus.num_fp_register_writes            0                       # number of times the floating registers were written
system.switch_cpus.num_func_calls                   0                       # number of times a function call or return occured
system.switch_cpus.num_idle_cycles                  0                       # Number of idle cycles
system.switch_cpus.num_int_alu_accesses             0                       # Number of integer alu accesses
system.switch_cpus.num_int_insts                    0                       # number of integer instructions
system.switch_cpus.num_int_register_reads            0                       # number of times the integer registers were read
system.switch_cpus.num_int_register_writes            0                       # number of times the integer registers were written
system.switch_cpus.num_load_insts                   0                       # Number of load instructions
system.switch_cpus.num_mem_refs                     0                       # number of memory refs
system.switch_cpus.num_store_insts                  0                       # Number of store instructions
system.switch_cpus.num_vec_alu_accesses             0                       # Number of vector alu accesses
system.switch_cpus.num_vec_insts                    0                       # number of vector instructions
system.switch_cpus.num_vec_register_reads            0                       # number of times the vector registers were read
system.switch_cpus.num_vec_register_writes            0                       # number of times the vector registers were written
system.switch_cpus.op_class::No_OpClass             0                       # Class of executed instruction
system.switch_cpus.op_class::IntAlu                 0                       # Class of executed instruction
system.switch_cpus.op_class::IntMult                0                       # Class of executed instruction
system.switch_cpus.op_class::IntDiv                 0                       # Class of executed instruction
system.switch_cpus.op_class::FloatAdd               0                       # Class of executed instruction
system.switch_cpus.op_class::FloatCmp               0                       # Class of executed instruction
system.switch_cpus.op_class::FloatCvt               0                       # Class of executed instruction
system.switch_cpus.op_class::FloatMult              0                       # Class of executed instruction
system.switch_cpus.op_class::FloatMultAcc            0                       # Class of executed instruction
system.switch_cpus.op_class::FloatDiv               0                       # Class of executed instruction
system.switch_cpus.op_class::FloatMisc              0                       # Class of executed instruction
system.switch_cpus.op_class::FloatSqrt              0                       # Class of executed instruction
system.switch_cpus.op_class::SimdAdd                0                       # Class of executed instruction
system.switch_cpus.op_class::SimdAddAcc             0                       # Class of executed instruction
system.switch_cpus.op_class::SimdAlu                0                       # Class of executed instruction
system.switch_cpus.op_class::SimdCmp                0                       # Class of executed instruction
system.switch_cpus.op_class::SimdCvt                0                       # Class of executed instruction
system.switch_cpus.op_class::SimdMisc               0                       # Class of executed instruction
system.switch_cpus.op_class::SimdMult               0                       # Class of executed instruction
system.switch_cpus.op_class::SimdMultAcc            0                       # Class of executed instruction
system.switch_cpus.op_class::SimdShift              0                       # Class of executed instruction
system.switch_cpus.op_class::SimdShiftAcc            0                       # Class of executed instruction
system.switch_cpus.op_class::SimdDiv                0                       # Class of executed instruction
system.switch_cpus.op_class::SimdSqrt               0                       # Class of executed instruction
system.switch_cpus.op_class::SimdFloatAdd            0                       # Class of executed instruction
system.switch_cpus.op_class::SimdFloatAlu            0                       # Class of executed instruction
system.switch_cpus.op_class::SimdFloatCmp            0                       # Class of executed instruction
system.switch_cpus.op_class::SimdFloatCvt            0                       # Class of executed instruction
system.switch_cpus.op_class::SimdFloatDiv            0                       # Class of executed instruction
system.switch_cpus.op_class::SimdFloatMisc            0                       # Class of executed instruction
system.switch_cpus.op_class::SimdFloatMult            0                       # Class of executed instruction
system.switch_cpus.op_class::SimdFloatMultAcc            0                       # Class of executed instruction
system.switch_cpus.op_class::SimdFloatSqrt            0                       # Class of executed instruction
system.switch_cpus.op_class::SimdReduceAdd            0                       # Class of executed instruction
system.switch_cpus.op_class::SimdReduceAlu            0                       # Class of executed instruction
system.switch_cpus.op_class::SimdReduceCmp            0                       # Class of executed instruction
system.switch_cpus.op_class::SimdFloatReduceAdd            0                       # Class of executed instruction
system.switch_cpus.op_class::SimdFloatReduceCmp            0                       # Class of executed instruction
system.switch_cpus.op_class::SimdAes                0                       # Class of executed instruction
system.switch_cpus.op_class::SimdAesMix             0                       # Class of executed instruction
system.switch_cpus.op_class::SimdSha1Hash            0                       # Class of executed instruction
system.switch_cpus.op_class::SimdSha1Hash2            0                       # Class of executed instruction
system.switch_cpus.op_class::SimdSha256Hash            0                       # Class of executed instruction
system.switch_cpus.op_class::SimdSha256Hash2            0                       # Class of executed instruction
system.switch_cpus.op_class::SimdShaSigma2            0                       # Class of executed instruction
system.switch_cpus.op_class::SimdShaSigma3            0                       # Class of executed instruction
system.switch_cpus.op_class::SimdPredAlu            0                       # Class of executed instruction
system.switch_cpus.op_class::MemRead                0                       # Class of executed instruction
system.switch_cpus.op_class::MemWrite               0                       # Class of executed instruction
system.switch_cpus.op_class::FloatMemRead            0                       # Class of executed instruction
system.switch_cpus.op_class::FloatMemWrite            0                       # Class of executed instruction
system.switch_cpus.op_class::IprAccess              0                       # Class of executed instruction
system.switch_cpus.op_class::InstPrefetch            0                       # Class of executed instruction
system.switch_cpus.op_class::total                  0                       # Class of executed instruction
system.switch_cpus_1.branchPred.BTBCorrect            0                       # Number of correct BTB predictions (this stat may not work properly.
system.switch_cpus_1.branchPred.BTBHitPct          nan                       # BTB Hit Percentage
system.switch_cpus_1.branchPred.BTBHits             0                       # Number of BTB hits
system.switch_cpus_1.branchPred.BTBLookups            0                       # Number of BTB lookups
system.switch_cpus_1.branchPred.RASInCorrect           25                       # Number of incorrect RAS predictions.
system.switch_cpus_1.branchPred.condIncorrect      8645244                       # Number of conditional branches incorrect
system.switch_cpus_1.branchPred.condPredicted    109077106                       # Number of conditional branches predicted
system.switch_cpus_1.branchPred.indirectHits     35803668                       # Number of indirect target hits.
system.switch_cpus_1.branchPred.indirectLookups     60735427                       # Number of indirect predictor lookups.
system.switch_cpus_1.branchPred.indirectMisses     24931759                       # Number of indirect misses.
system.switch_cpus_1.branchPred.lookups     115811758                       # Number of BP lookups
system.switch_cpus_1.branchPred.usedRAS       2173719                       # Number of times the RAS was used to get a target.
system.switch_cpus_1.branchPredindirectMispredicted      4704105                       # Number of mispredicted indirect branches.
system.switch_cpus_1.cc_regfile_reads       307437431                       # number of cc regfile reads
system.switch_cpus_1.cc_regfile_writes      280114069                       # number of cc regfile writes
system.switch_cpus_1.commit.amos                    0                       # Number of atomic instructions committed
system.switch_cpus_1.commit.branchMispredicts      8645570                       # The number of times a branch was mispredicted
system.switch_cpus_1.commit.branches         48408961                       # Number of branches committed
system.switch_cpus_1.commit.bw_lim_events     30421634                       # number cycles where commit BW limit reached
system.switch_cpus_1.commit.commitNonSpecStalls            6                       # The number of times commit has been forced to stall to communicate backwards
system.switch_cpus_1.commit.commitSquashedInsts    367657152                       # The number of squashed insts skipped by commit
system.switch_cpus_1.commit.committedInsts    299837589                       # Number of instructions committed
system.switch_cpus_1.commit.committedOps    507028539                       # Number of ops (including micro ops) committed
system.switch_cpus_1.commit.committed_per_cycle::samples    371511677                       # Number of insts commited each cycle
system.switch_cpus_1.commit.committed_per_cycle::mean     1.364771                       # Number of insts commited each cycle
system.switch_cpus_1.commit.committed_per_cycle::stdev     2.394027                       # Number of insts commited each cycle
system.switch_cpus_1.commit.committed_per_cycle::underflows            0      0.00%      0.00% # Number of insts commited each cycle
system.switch_cpus_1.commit.committed_per_cycle::0    224290924     60.37%     60.37% # Number of insts commited each cycle
system.switch_cpus_1.commit.committed_per_cycle::1     54404921     14.64%     75.02% # Number of insts commited each cycle
system.switch_cpus_1.commit.committed_per_cycle::2     19522039      5.25%     80.27% # Number of insts commited each cycle
system.switch_cpus_1.commit.committed_per_cycle::3     21469772      5.78%     86.05% # Number of insts commited each cycle
system.switch_cpus_1.commit.committed_per_cycle::4     10425926      2.81%     88.86% # Number of insts commited each cycle
system.switch_cpus_1.commit.committed_per_cycle::5      4762008      1.28%     90.14% # Number of insts commited each cycle
system.switch_cpus_1.commit.committed_per_cycle::6      3217763      0.87%     91.00% # Number of insts commited each cycle
system.switch_cpus_1.commit.committed_per_cycle::7      2996690      0.81%     91.81% # Number of insts commited each cycle
system.switch_cpus_1.commit.committed_per_cycle::8     30421634      8.19%    100.00% # Number of insts commited each cycle
system.switch_cpus_1.commit.committed_per_cycle::overflows            0      0.00%    100.00% # Number of insts commited each cycle
system.switch_cpus_1.commit.committed_per_cycle::min_value            0                       # Number of insts commited each cycle
system.switch_cpus_1.commit.committed_per_cycle::max_value            8                       # Number of insts commited each cycle
system.switch_cpus_1.commit.committed_per_cycle::total    371511677                       # Number of insts commited each cycle
system.switch_cpus_1.commit.fp_insts           157352                       # Number of committed floating point instructions.
system.switch_cpus_1.commit.function_calls      1210508                       # Number of function calls committed.
system.switch_cpus_1.commit.int_insts       506322258                       # Number of committed integer instructions.
system.switch_cpus_1.commit.loads            86983131                       # Number of loads committed
system.switch_cpus_1.commit.membars                 0                       # Number of memory barriers committed
system.switch_cpus_1.commit.op_class_0::No_OpClass       705722      0.14%      0.14% # Class of committed instruction
system.switch_cpus_1.commit.op_class_0::IntAlu    388389030     76.60%     76.74% # Class of committed instruction
system.switch_cpus_1.commit.op_class_0::IntMult          343      0.00%     76.74% # Class of committed instruction
system.switch_cpus_1.commit.op_class_0::IntDiv          153      0.00%     76.74% # Class of committed instruction
system.switch_cpus_1.commit.op_class_0::FloatAdd            8      0.00%     76.74% # Class of committed instruction
system.switch_cpus_1.commit.op_class_0::FloatCmp            0      0.00%     76.74% # Class of committed instruction
system.switch_cpus_1.commit.op_class_0::FloatCvt            0      0.00%     76.74% # Class of committed instruction
system.switch_cpus_1.commit.op_class_0::FloatMult            0      0.00%     76.74% # Class of committed instruction
system.switch_cpus_1.commit.op_class_0::FloatMultAcc            0      0.00%     76.74% # Class of committed instruction
system.switch_cpus_1.commit.op_class_0::FloatDiv            0      0.00%     76.74% # Class of committed instruction
system.switch_cpus_1.commit.op_class_0::FloatMisc            0      0.00%     76.74% # Class of committed instruction
system.switch_cpus_1.commit.op_class_0::FloatSqrt            0      0.00%     76.74% # Class of committed instruction
system.switch_cpus_1.commit.op_class_0::SimdAdd            0      0.00%     76.74% # Class of committed instruction
system.switch_cpus_1.commit.op_class_0::SimdAddAcc            0      0.00%     76.74% # Class of committed instruction
system.switch_cpus_1.commit.op_class_0::SimdAlu           32      0.00%     76.74% # Class of committed instruction
system.switch_cpus_1.commit.op_class_0::SimdCmp            0      0.00%     76.74% # Class of committed instruction
system.switch_cpus_1.commit.op_class_0::SimdCvt           56      0.00%     76.74% # Class of committed instruction
system.switch_cpus_1.commit.op_class_0::SimdMisc          112      0.00%     76.74% # Class of committed instruction
system.switch_cpus_1.commit.op_class_0::SimdMult            0      0.00%     76.74% # Class of committed instruction
system.switch_cpus_1.commit.op_class_0::SimdMultAcc            0      0.00%     76.74% # Class of committed instruction
system.switch_cpus_1.commit.op_class_0::SimdShift            0      0.00%     76.74% # Class of committed instruction
system.switch_cpus_1.commit.op_class_0::SimdShiftAcc            0      0.00%     76.74% # Class of committed instruction
system.switch_cpus_1.commit.op_class_0::SimdDiv            0      0.00%     76.74% # Class of committed instruction
system.switch_cpus_1.commit.op_class_0::SimdSqrt            0      0.00%     76.74% # Class of committed instruction
system.switch_cpus_1.commit.op_class_0::SimdFloatAdd            0      0.00%     76.74% # Class of committed instruction
system.switch_cpus_1.commit.op_class_0::SimdFloatAlu            0      0.00%     76.74% # Class of committed instruction
system.switch_cpus_1.commit.op_class_0::SimdFloatCmp            0      0.00%     76.74% # Class of committed instruction
system.switch_cpus_1.commit.op_class_0::SimdFloatCvt            0      0.00%     76.74% # Class of committed instruction
system.switch_cpus_1.commit.op_class_0::SimdFloatDiv            0      0.00%     76.74% # Class of committed instruction
system.switch_cpus_1.commit.op_class_0::SimdFloatMisc            0      0.00%     76.74% # Class of committed instruction
system.switch_cpus_1.commit.op_class_0::SimdFloatMult            0      0.00%     76.74% # Class of committed instruction
system.switch_cpus_1.commit.op_class_0::SimdFloatMultAcc            0      0.00%     76.74% # Class of committed instruction
system.switch_cpus_1.commit.op_class_0::SimdFloatSqrt            0      0.00%     76.74% # Class of committed instruction
system.switch_cpus_1.commit.op_class_0::SimdReduceAdd            0      0.00%     76.74% # Class of committed instruction
system.switch_cpus_1.commit.op_class_0::SimdReduceAlu            0      0.00%     76.74% # Class of committed instruction
system.switch_cpus_1.commit.op_class_0::SimdReduceCmp            0      0.00%     76.74% # Class of committed instruction
system.switch_cpus_1.commit.op_class_0::SimdFloatReduceAdd            0      0.00%     76.74% # Class of committed instruction
system.switch_cpus_1.commit.op_class_0::SimdFloatReduceCmp            0      0.00%     76.74% # Class of committed instruction
system.switch_cpus_1.commit.op_class_0::SimdAes            0      0.00%     76.74% # Class of committed instruction
system.switch_cpus_1.commit.op_class_0::SimdAesMix            0      0.00%     76.74% # Class of committed instruction
system.switch_cpus_1.commit.op_class_0::SimdSha1Hash            0      0.00%     76.74% # Class of committed instruction
system.switch_cpus_1.commit.op_class_0::SimdSha1Hash2            0      0.00%     76.74% # Class of committed instruction
system.switch_cpus_1.commit.op_class_0::SimdSha256Hash            0      0.00%     76.74% # Class of committed instruction
system.switch_cpus_1.commit.op_class_0::SimdSha256Hash2            0      0.00%     76.74% # Class of committed instruction
system.switch_cpus_1.commit.op_class_0::SimdShaSigma2            0      0.00%     76.74% # Class of committed instruction
system.switch_cpus_1.commit.op_class_0::SimdShaSigma3            0      0.00%     76.74% # Class of committed instruction
system.switch_cpus_1.commit.op_class_0::SimdPredAlu            0      0.00%     76.74% # Class of committed instruction
system.switch_cpus_1.commit.op_class_0::MemRead     86983097     17.16%     93.90% # Class of committed instruction
system.switch_cpus_1.commit.op_class_0::MemWrite     30792872      6.07%     99.97% # Class of committed instruction
system.switch_cpus_1.commit.op_class_0::FloatMemRead           34      0.00%     99.97% # Class of committed instruction
system.switch_cpus_1.commit.op_class_0::FloatMemWrite       157080      0.03%    100.00% # Class of committed instruction
system.switch_cpus_1.commit.op_class_0::IprAccess            0      0.00%    100.00% # Class of committed instruction
system.switch_cpus_1.commit.op_class_0::InstPrefetch            0      0.00%    100.00% # Class of committed instruction
system.switch_cpus_1.commit.op_class_0::total    507028539                       # Class of committed instruction
system.switch_cpus_1.commit.refs            117933083                       # Number of memory references committed
system.switch_cpus_1.commit.swp_count               0                       # Number of s/w prefetches committed
system.switch_cpus_1.commit.vec_insts               0                       # Number of committed Vector instructions.
system.switch_cpus_1.committedInsts         299837589                       # Number of Instructions Simulated
system.switch_cpus_1.committedOps           507028539                       # Number of Ops (including micro ops) Simulated
system.switch_cpus_1.cpi                     1.417994                       # CPI: Cycles Per Instruction
system.switch_cpus_1.cpi_total               1.417994                       # CPI: Total CPI of All Threads
system.switch_cpus_1.decode.BlockedCycles    247721085                       # Number of cycles decode is blocked
system.switch_cpus_1.decode.DecodedInsts   1037254703                       # Number of instructions handled by decode
system.switch_cpus_1.decode.IdleCycles       31109800                       # Number of cycles decode is idle
system.switch_cpus_1.decode.RunCycles       103403269                       # Number of cycles decode is running
system.switch_cpus_1.decode.SquashCycles      8671527                       # Number of cycles decode is squashing
system.switch_cpus_1.decode.UnblockCycles     34219419                       # Number of cycles decode is unblocking
system.switch_cpus_1.dtb.rdAccesses         120669737                       # TLB accesses on read requests
system.switch_cpus_1.dtb.rdMisses             1710453                       # TLB misses on read requests
system.switch_cpus_1.dtb.wrAccesses          39633561                       # TLB accesses on write requests
system.switch_cpus_1.dtb.wrMisses              430216                       # TLB misses on write requests
system.switch_cpus_1.fetch.Branches         115811758                       # Number of branches that fetch encountered
system.switch_cpus_1.fetch.CacheLines        75156563                       # Number of cache lines fetched
system.switch_cpus_1.fetch.Cycles           408827173                       # Number of cycles fetch has run and was not squashing or blocked
system.switch_cpus_1.fetch.IcacheSquashes          884                       # Number of outstanding Icache misses that were squashed
system.switch_cpus_1.fetch.IcacheWaitRetryStallCycles           79                       # Number of stall cycles due to full MSHR
system.switch_cpus_1.fetch.Insts            722818410                       # Number of instructions fetch has processed
system.switch_cpus_1.fetch.MiscStallCycles          337                       # Number of cycles fetch has spent waiting on interrupts, or bad addresses, or out of MSHRs
system.switch_cpus_1.fetch.PendingTrapStallCycles         4799                       # Number of stall cycles due to pending traps
system.switch_cpus_1.fetch.SquashCycles      17343054                       # Number of cycles fetch has spent squashing
system.switch_cpus_1.fetch.branchRate        0.272391                       # Number of branch fetches per cycle
system.switch_cpus_1.fetch.icacheStallCycles      7621208                       # Number of cycles fetch is stalled on an Icache miss
system.switch_cpus_1.fetch.predictedBranches     37977387                       # Number of branches that fetch has predicted taken
system.switch_cpus_1.fetch.rate              1.700078                       # Number of inst fetches per cycle
system.switch_cpus_1.fetch.rateDist::samples    425125123                       # Number of instructions fetched each cycle (Total)
system.switch_cpus_1.fetch.rateDist::mean     2.823319                       # Number of instructions fetched each cycle (Total)
system.switch_cpus_1.fetch.rateDist::stdev     3.498533                       # Number of instructions fetched each cycle (Total)
system.switch_cpus_1.fetch.rateDist::underflows            0      0.00%      0.00% # Number of instructions fetched each cycle (Total)
system.switch_cpus_1.fetch.rateDist::0      232855442     54.77%     54.77% # Number of instructions fetched each cycle (Total)
system.switch_cpus_1.fetch.rateDist::1       11008113      2.59%     57.36% # Number of instructions fetched each cycle (Total)
system.switch_cpus_1.fetch.rateDist::2       14569178      3.43%     60.79% # Number of instructions fetched each cycle (Total)
system.switch_cpus_1.fetch.rateDist::3       11153803      2.62%     63.41% # Number of instructions fetched each cycle (Total)
system.switch_cpus_1.fetch.rateDist::4        9409719      2.21%     65.63% # Number of instructions fetched each cycle (Total)
system.switch_cpus_1.fetch.rateDist::5       16493619      3.88%     69.51% # Number of instructions fetched each cycle (Total)
system.switch_cpus_1.fetch.rateDist::6       10460524      2.46%     71.97% # Number of instructions fetched each cycle (Total)
system.switch_cpus_1.fetch.rateDist::7        9612088      2.26%     74.23% # Number of instructions fetched each cycle (Total)
system.switch_cpus_1.fetch.rateDist::8      109562637     25.77%    100.00% # Number of instructions fetched each cycle (Total)
system.switch_cpus_1.fetch.rateDist::overflows            0      0.00%    100.00% # Number of instructions fetched each cycle (Total)
system.switch_cpus_1.fetch.rateDist::min_value            0                       # Number of instructions fetched each cycle (Total)
system.switch_cpus_1.fetch.rateDist::max_value            8                       # Number of instructions fetched each cycle (Total)
system.switch_cpus_1.fetch.rateDist::total    425125123                       # Number of instructions fetched each cycle (Total)
system.switch_cpus_1.fp_regfile_reads          271667                       # number of floating regfile reads
system.switch_cpus_1.fp_regfile_writes          74739                       # number of floating regfile writes
system.switch_cpus_1.idleCycles                 42654                       # Total number of cycles that the CPU has spent unscheduled due to idling
system.switch_cpus_1.iew.branchMispredicts     10643024                       # Number of branch mispredicts detected at execute
system.switch_cpus_1.iew.exec_branches       62292330                       # Number of branches executed
system.switch_cpus_1.iew.exec_nop                   0                       # number of nop insts executed
system.switch_cpus_1.iew.exec_rate           1.693259                       # Inst execution rate
system.switch_cpus_1.iew.exec_refs          162507545                       # number of memory reference insts executed
system.switch_cpus_1.iew.exec_stores         39627235                       # Number of stores executed
system.switch_cpus_1.iew.exec_swp                   0                       # number of swp insts executed
system.switch_cpus_1.iew.iewBlockCycles     101289564                       # Number of cycles IEW is blocking
system.switch_cpus_1.iew.iewDispLoadInsts    152179933                       # Number of dispatched load instructions
system.switch_cpus_1.iew.iewDispNonSpecInsts           69                       # Number of dispatched non-speculative instructions
system.switch_cpus_1.iew.iewDispSquashedInsts        90998                       # Number of squashed instructions skipped by dispatch
system.switch_cpus_1.iew.iewDispStoreInsts     59179309                       # Number of dispatched store instructions
system.switch_cpus_1.iew.iewDispatchedInsts    874638555                       # Number of instructions dispatched to IQ
system.switch_cpus_1.iew.iewExecLoadInsts    122880310                       # Number of load instructions executed
system.switch_cpus_1.iew.iewExecSquashedInsts     23401460                       # Number of squashed instructions skipped in execute
system.switch_cpus_1.iew.iewExecutedInsts    719919197                       # Number of executed instructions
system.switch_cpus_1.iew.iewIQFullEvents       758893                       # Number of times the IQ has become full, causing a stall
system.switch_cpus_1.iew.iewIdleCycles              0                       # Number of cycles IEW is idle
system.switch_cpus_1.iew.iewLSQFullEvents     18986910                       # Number of times the LSQ has become full, causing a stall
system.switch_cpus_1.iew.iewSquashCycles      8671527                       # Number of cycles IEW is squashing
system.switch_cpus_1.iew.iewUnblockCycles     20414317                       # Number of cycles IEW is unblocking
system.switch_cpus_1.iew.lsq.thread0.blockedLoads            0                       # Number of blocked loads due to partial load-store forwarding
system.switch_cpus_1.iew.lsq.thread0.cacheBlocked       636593                       # Number of times an access to memory failed due to the cache being blocked
system.switch_cpus_1.iew.lsq.thread0.forwLoads     12532658                       # Number of loads that had data forwarded from stores
system.switch_cpus_1.iew.lsq.thread0.ignoredResponses        40635                       # Number of memory responses ignored because the instruction is squashed
system.switch_cpus_1.iew.lsq.thread0.invAddrLoads            0                       # Number of loads ignored due to an invalid address
system.switch_cpus_1.iew.lsq.thread0.invAddrSwpfs            0                       # Number of software prefetches ignored due to an invalid address
system.switch_cpus_1.iew.lsq.thread0.memOrderViolation        35734                       # Number of memory ordering violations
system.switch_cpus_1.iew.lsq.thread0.rescheduledLoads        15088                       # Number of loads that were rescheduled
system.switch_cpus_1.iew.lsq.thread0.squashedLoads     65196802                       # Number of loads squashed
system.switch_cpus_1.iew.lsq.thread0.squashedStores     28229357                       # Number of stores squashed
system.switch_cpus_1.iew.memOrderViolationEvents        35734                       # Number of memory order violations
system.switch_cpus_1.iew.predictedNotTakenIncorrect      9484028                       # Number of branches that were predicted not taken incorrectly
system.switch_cpus_1.iew.predictedTakenIncorrect      1158996                       # Number of branches that were predicted taken incorrectly
system.switch_cpus_1.iew.wb_consumers       840916398                       # num instructions consuming a value
system.switch_cpus_1.iew.wb_count           706693612                       # cumulative count of insts written-back
system.switch_cpus_1.iew.wb_fanout           0.653395                       # average fanout of values written-back
system.switch_cpus_1.iew.wb_producers       549450962                       # num instructions producing a value
system.switch_cpus_1.iew.wb_rate             1.662152                       # insts written-back per cycle
system.switch_cpus_1.iew.wb_sent            714056945                       # cumulative count of insts sent to commit
system.switch_cpus_1.int_regfile_reads     1090300060                       # number of integer regfile reads
system.switch_cpus_1.int_regfile_writes     609155596                       # number of integer regfile writes
system.switch_cpus_1.ipc                     0.705222                       # IPC: Instructions Per Cycle
system.switch_cpus_1.ipc_total               0.705222                       # IPC: Total IPC of All Threads
system.switch_cpus_1.iq.FU_type_0::No_OpClass      2884110      0.39%      0.39% # Type of FU issued
system.switch_cpus_1.iq.FU_type_0::IntAlu    568791504     76.52%     76.91% # Type of FU issued
system.switch_cpus_1.iq.FU_type_0::IntMult          365      0.00%     76.91% # Type of FU issued
system.switch_cpus_1.iq.FU_type_0::IntDiv          158      0.00%     76.91% # Type of FU issued
system.switch_cpus_1.iq.FU_type_0::FloatAdd           12      0.00%     76.91% # Type of FU issued
system.switch_cpus_1.iq.FU_type_0::FloatCmp            0      0.00%     76.91% # Type of FU issued
system.switch_cpus_1.iq.FU_type_0::FloatCvt         3346      0.00%     76.91% # Type of FU issued
system.switch_cpus_1.iq.FU_type_0::FloatMult            0      0.00%     76.91% # Type of FU issued
system.switch_cpus_1.iq.FU_type_0::FloatMultAcc            0      0.00%     76.91% # Type of FU issued
system.switch_cpus_1.iq.FU_type_0::FloatDiv            0      0.00%     76.91% # Type of FU issued
system.switch_cpus_1.iq.FU_type_0::FloatMisc            0      0.00%     76.91% # Type of FU issued
system.switch_cpus_1.iq.FU_type_0::FloatSqrt            0      0.00%     76.91% # Type of FU issued
system.switch_cpus_1.iq.FU_type_0::SimdAdd            0      0.00%     76.91% # Type of FU issued
system.switch_cpus_1.iq.FU_type_0::SimdAddAcc            0      0.00%     76.91% # Type of FU issued
system.switch_cpus_1.iq.FU_type_0::SimdAlu           44      0.00%     76.91% # Type of FU issued
system.switch_cpus_1.iq.FU_type_0::SimdCmp            0      0.00%     76.91% # Type of FU issued
system.switch_cpus_1.iq.FU_type_0::SimdCvt           66      0.00%     76.91% # Type of FU issued
system.switch_cpus_1.iq.FU_type_0::SimdMisc       102153      0.01%     76.92% # Type of FU issued
system.switch_cpus_1.iq.FU_type_0::SimdMult            0      0.00%     76.92% # Type of FU issued
system.switch_cpus_1.iq.FU_type_0::SimdMultAcc            0      0.00%     76.92% # Type of FU issued
system.switch_cpus_1.iq.FU_type_0::SimdShift            0      0.00%     76.92% # Type of FU issued
system.switch_cpus_1.iq.FU_type_0::SimdShiftAcc            0      0.00%     76.92% # Type of FU issued
system.switch_cpus_1.iq.FU_type_0::SimdDiv            0      0.00%     76.92% # Type of FU issued
system.switch_cpus_1.iq.FU_type_0::SimdSqrt            0      0.00%     76.92% # Type of FU issued
system.switch_cpus_1.iq.FU_type_0::SimdFloatAdd            0      0.00%     76.92% # Type of FU issued
system.switch_cpus_1.iq.FU_type_0::SimdFloatAlu            0      0.00%     76.92% # Type of FU issued
system.switch_cpus_1.iq.FU_type_0::SimdFloatCmp            0      0.00%     76.92% # Type of FU issued
system.switch_cpus_1.iq.FU_type_0::SimdFloatCvt        36510      0.00%     76.93% # Type of FU issued
system.switch_cpus_1.iq.FU_type_0::SimdFloatDiv            0      0.00%     76.93% # Type of FU issued
system.switch_cpus_1.iq.FU_type_0::SimdFloatMisc            0      0.00%     76.93% # Type of FU issued
system.switch_cpus_1.iq.FU_type_0::SimdFloatMult            0      0.00%     76.93% # Type of FU issued
system.switch_cpus_1.iq.FU_type_0::SimdFloatMultAcc            0      0.00%     76.93% # Type of FU issued
system.switch_cpus_1.iq.FU_type_0::SimdFloatSqrt            0      0.00%     76.93% # Type of FU issued
system.switch_cpus_1.iq.FU_type_0::SimdReduceAdd            0      0.00%     76.93% # Type of FU issued
system.switch_cpus_1.iq.FU_type_0::SimdReduceAlu            0      0.00%     76.93% # Type of FU issued
system.switch_cpus_1.iq.FU_type_0::SimdReduceCmp            0      0.00%     76.93% # Type of FU issued
system.switch_cpus_1.iq.FU_type_0::SimdFloatReduceAdd            0      0.00%     76.93% # Type of FU issued
system.switch_cpus_1.iq.FU_type_0::SimdFloatReduceCmp            0      0.00%     76.93% # Type of FU issued
system.switch_cpus_1.iq.FU_type_0::SimdAes            0      0.00%     76.93% # Type of FU issued
system.switch_cpus_1.iq.FU_type_0::SimdAesMix            0      0.00%     76.93% # Type of FU issued
system.switch_cpus_1.iq.FU_type_0::SimdSha1Hash            0      0.00%     76.93% # Type of FU issued
system.switch_cpus_1.iq.FU_type_0::SimdSha1Hash2            0      0.00%     76.93% # Type of FU issued
system.switch_cpus_1.iq.FU_type_0::SimdSha256Hash            0      0.00%     76.93% # Type of FU issued
system.switch_cpus_1.iq.FU_type_0::SimdSha256Hash2            0      0.00%     76.93% # Type of FU issued
system.switch_cpus_1.iq.FU_type_0::SimdShaSigma2            0      0.00%     76.93% # Type of FU issued
system.switch_cpus_1.iq.FU_type_0::SimdShaSigma3            0      0.00%     76.93% # Type of FU issued
system.switch_cpus_1.iq.FU_type_0::SimdPredAlu            0      0.00%     76.93% # Type of FU issued
system.switch_cpus_1.iq.FU_type_0::MemRead    129378664     17.41%     94.33% # Type of FU issued
system.switch_cpus_1.iq.FU_type_0::MemWrite     41966039      5.65%     99.98% # Type of FU issued
system.switch_cpus_1.iq.FU_type_0::FloatMemRead           75      0.00%     99.98% # Type of FU issued
system.switch_cpus_1.iq.FU_type_0::FloatMemWrite       157611      0.02%    100.00% # Type of FU issued
system.switch_cpus_1.iq.FU_type_0::IprAccess            0      0.00%    100.00% # Type of FU issued
system.switch_cpus_1.iq.FU_type_0::InstPrefetch            0      0.00%    100.00% # Type of FU issued
system.switch_cpus_1.iq.FU_type_0::total    743320657                       # Type of FU issued
system.switch_cpus_1.iq.fp_alu_accesses        300006                       # Number of floating point alu accesses
system.switch_cpus_1.iq.fp_inst_queue_reads       600506                       # Number of floating instruction queue reads
system.switch_cpus_1.iq.fp_inst_queue_wakeup_accesses       235165                       # Number of floating instruction queue wakeup accesses
system.switch_cpus_1.iq.fp_inst_queue_writes      1067544                       # Number of floating instruction queue writes
system.switch_cpus_1.iq.fu_busy_cnt          15287429                       # FU busy when requested
system.switch_cpus_1.iq.fu_busy_rate         0.020566                       # FU busy rate (busy events/executed inst)
system.switch_cpus_1.iq.fu_full::No_OpClass            0      0.00%      0.00% # attempts to use FU when none available
system.switch_cpus_1.iq.fu_full::IntAlu      13164085     86.11%     86.11% # attempts to use FU when none available
system.switch_cpus_1.iq.fu_full::IntMult            0      0.00%     86.11% # attempts to use FU when none available
system.switch_cpus_1.iq.fu_full::IntDiv             0      0.00%     86.11% # attempts to use FU when none available
system.switch_cpus_1.iq.fu_full::FloatAdd            0      0.00%     86.11% # attempts to use FU when none available
system.switch_cpus_1.iq.fu_full::FloatCmp            0      0.00%     86.11% # attempts to use FU when none available
system.switch_cpus_1.iq.fu_full::FloatCvt           43      0.00%     86.11% # attempts to use FU when none available
system.switch_cpus_1.iq.fu_full::FloatMult            0      0.00%     86.11% # attempts to use FU when none available
system.switch_cpus_1.iq.fu_full::FloatMultAcc            0      0.00%     86.11% # attempts to use FU when none available
system.switch_cpus_1.iq.fu_full::FloatDiv            0      0.00%     86.11% # attempts to use FU when none available
system.switch_cpus_1.iq.fu_full::FloatMisc            0      0.00%     86.11% # attempts to use FU when none available
system.switch_cpus_1.iq.fu_full::FloatSqrt            0      0.00%     86.11% # attempts to use FU when none available
system.switch_cpus_1.iq.fu_full::SimdAdd            0      0.00%     86.11% # attempts to use FU when none available
system.switch_cpus_1.iq.fu_full::SimdAddAcc            0      0.00%     86.11% # attempts to use FU when none available
system.switch_cpus_1.iq.fu_full::SimdAlu            3      0.00%     86.11% # attempts to use FU when none available
system.switch_cpus_1.iq.fu_full::SimdCmp            0      0.00%     86.11% # attempts to use FU when none available
system.switch_cpus_1.iq.fu_full::SimdCvt            3      0.00%     86.11% # attempts to use FU when none available
system.switch_cpus_1.iq.fu_full::SimdMisc            0      0.00%     86.11% # attempts to use FU when none available
system.switch_cpus_1.iq.fu_full::SimdMult            0      0.00%     86.11% # attempts to use FU when none available
system.switch_cpus_1.iq.fu_full::SimdMultAcc            0      0.00%     86.11% # attempts to use FU when none available
system.switch_cpus_1.iq.fu_full::SimdShift            0      0.00%     86.11% # attempts to use FU when none available
system.switch_cpus_1.iq.fu_full::SimdShiftAcc            0      0.00%     86.11% # attempts to use FU when none available
system.switch_cpus_1.iq.fu_full::SimdDiv            0      0.00%     86.11% # attempts to use FU when none available
system.switch_cpus_1.iq.fu_full::SimdSqrt            0      0.00%     86.11% # attempts to use FU when none available
system.switch_cpus_1.iq.fu_full::SimdFloatAdd            0      0.00%     86.11% # attempts to use FU when none available
system.switch_cpus_1.iq.fu_full::SimdFloatAlu            0      0.00%     86.11% # attempts to use FU when none available
system.switch_cpus_1.iq.fu_full::SimdFloatCmp            0      0.00%     86.11% # attempts to use FU when none available
system.switch_cpus_1.iq.fu_full::SimdFloatCvt            0      0.00%     86.11% # attempts to use FU when none available
system.switch_cpus_1.iq.fu_full::SimdFloatDiv            0      0.00%     86.11% # attempts to use FU when none available
system.switch_cpus_1.iq.fu_full::SimdFloatMisc            0      0.00%     86.11% # attempts to use FU when none available
system.switch_cpus_1.iq.fu_full::SimdFloatMult            0      0.00%     86.11% # attempts to use FU when none available
system.switch_cpus_1.iq.fu_full::SimdFloatMultAcc            0      0.00%     86.11% # attempts to use FU when none available
system.switch_cpus_1.iq.fu_full::SimdFloatSqrt            0      0.00%     86.11% # attempts to use FU when none available
system.switch_cpus_1.iq.fu_full::SimdReduceAdd            0      0.00%     86.11% # attempts to use FU when none available
system.switch_cpus_1.iq.fu_full::SimdReduceAlu            0      0.00%     86.11% # attempts to use FU when none available
system.switch_cpus_1.iq.fu_full::SimdReduceCmp            0      0.00%     86.11% # attempts to use FU when none available
system.switch_cpus_1.iq.fu_full::SimdFloatReduceAdd            0      0.00%     86.11% # attempts to use FU when none available
system.switch_cpus_1.iq.fu_full::SimdFloatReduceCmp            0      0.00%     86.11% # attempts to use FU when none available
system.switch_cpus_1.iq.fu_full::SimdAes            0      0.00%     86.11% # attempts to use FU when none available
system.switch_cpus_1.iq.fu_full::SimdAesMix            0      0.00%     86.11% # attempts to use FU when none available
system.switch_cpus_1.iq.fu_full::SimdSha1Hash            0      0.00%     86.11% # attempts to use FU when none available
system.switch_cpus_1.iq.fu_full::SimdSha1Hash2            0      0.00%     86.11% # attempts to use FU when none available
system.switch_cpus_1.iq.fu_full::SimdSha256Hash            0      0.00%     86.11% # attempts to use FU when none available
system.switch_cpus_1.iq.fu_full::SimdSha256Hash2            0      0.00%     86.11% # attempts to use FU when none available
system.switch_cpus_1.iq.fu_full::SimdShaSigma2            0      0.00%     86.11% # attempts to use FU when none available
system.switch_cpus_1.iq.fu_full::SimdShaSigma3            0      0.00%     86.11% # attempts to use FU when none available
system.switch_cpus_1.iq.fu_full::SimdPredAlu            0      0.00%     86.11% # attempts to use FU when none available
system.switch_cpus_1.iq.fu_full::MemRead      2007085     13.13%     99.24% # attempts to use FU when none available
system.switch_cpus_1.iq.fu_full::MemWrite       116107      0.76%    100.00% # attempts to use FU when none available
system.switch_cpus_1.iq.fu_full::FloatMemRead            3      0.00%    100.00% # attempts to use FU when none available
system.switch_cpus_1.iq.fu_full::FloatMemWrite          100      0.00%    100.00% # attempts to use FU when none available
system.switch_cpus_1.iq.fu_full::IprAccess            0      0.00%    100.00% # attempts to use FU when none available
system.switch_cpus_1.iq.fu_full::InstPrefetch            0      0.00%    100.00% # attempts to use FU when none available
system.switch_cpus_1.iq.int_alu_accesses    755423970                       # Number of integer alu accesses
system.switch_cpus_1.iq.int_inst_queue_reads   1932165093                       # Number of integer instruction queue reads
system.switch_cpus_1.iq.int_inst_queue_wakeup_accesses    706458447                       # Number of integer instruction queue wakeup accesses
system.switch_cpus_1.iq.int_inst_queue_writes   1241213958                       # Number of integer instruction queue writes
system.switch_cpus_1.iq.iqInstsAdded        874638358                       # Number of instructions added to the IQ (excludes non-spec)
system.switch_cpus_1.iq.iqInstsIssued       743320657                       # Number of instructions issued
system.switch_cpus_1.iq.iqNonSpecInstsAdded          197                       # Number of non-speculative instructions added to the IQ
system.switch_cpus_1.iq.iqSquashedInstsExamined    367610015                       # Number of squashed instructions iterated over during squash; mainly for profiling
system.switch_cpus_1.iq.iqSquashedInstsIssued      5711733                       # Number of squashed instructions issued
system.switch_cpus_1.iq.iqSquashedNonSpecRemoved          191                       # Number of squashed non-spec instructions that were removed
system.switch_cpus_1.iq.iqSquashedOperandsExamined    533208520                       # Number of squashed operands that are examined and possibly removed from graph
system.switch_cpus_1.iq.issued_per_cycle::samples    425125123                       # Number of insts issued each cycle
system.switch_cpus_1.iq.issued_per_cycle::mean     1.748475                       # Number of insts issued each cycle
system.switch_cpus_1.iq.issued_per_cycle::stdev     2.428856                       # Number of insts issued each cycle
system.switch_cpus_1.iq.issued_per_cycle::underflows            0      0.00%      0.00% # Number of insts issued each cycle
system.switch_cpus_1.iq.issued_per_cycle::0    231930387     54.56%     54.56% # Number of insts issued each cycle
system.switch_cpus_1.iq.issued_per_cycle::1     37093645      8.73%     63.28% # Number of insts issued each cycle
system.switch_cpus_1.iq.issued_per_cycle::2     33136773      7.79%     71.08% # Number of insts issued each cycle
system.switch_cpus_1.iq.issued_per_cycle::3     22297968      5.25%     76.32% # Number of insts issued each cycle
system.switch_cpus_1.iq.issued_per_cycle::4     23979013      5.64%     81.96% # Number of insts issued each cycle
system.switch_cpus_1.iq.issued_per_cycle::5     23887680      5.62%     87.58% # Number of insts issued each cycle
system.switch_cpus_1.iq.issued_per_cycle::6     23830195      5.61%     93.19% # Number of insts issued each cycle
system.switch_cpus_1.iq.issued_per_cycle::7     17031756      4.01%     97.19% # Number of insts issued each cycle
system.switch_cpus_1.iq.issued_per_cycle::8     11937706      2.81%    100.00% # Number of insts issued each cycle
system.switch_cpus_1.iq.issued_per_cycle::overflows            0      0.00%    100.00% # Number of insts issued each cycle
system.switch_cpus_1.iq.issued_per_cycle::min_value            0                       # Number of insts issued each cycle
system.switch_cpus_1.iq.issued_per_cycle::max_value            8                       # Number of insts issued each cycle
system.switch_cpus_1.iq.issued_per_cycle::total    425125123                       # Number of insts issued each cycle
system.switch_cpus_1.iq.rate                 1.748300                       # Inst issue rate
system.switch_cpus_1.iq.vec_alu_accesses            0                       # Number of vector alu accesses
system.switch_cpus_1.iq.vec_inst_queue_reads            0                       # Number of vector instruction queue reads
system.switch_cpus_1.iq.vec_inst_queue_wakeup_accesses            0                       # Number of vector instruction queue wakeup accesses
system.switch_cpus_1.iq.vec_inst_queue_writes            0                       # Number of vector instruction queue writes
system.switch_cpus_1.itb.rdAccesses                 0                       # TLB accesses on read requests
system.switch_cpus_1.itb.rdMisses                   0                       # TLB misses on read requests
system.switch_cpus_1.itb.wrAccesses          75157021                       # TLB accesses on write requests
system.switch_cpus_1.itb.wrMisses                 521                       # TLB misses on write requests
system.switch_cpus_1.memDep0.conflictingLoads     29576870                       # Number of conflicting loads.
system.switch_cpus_1.memDep0.conflictingStores     16684889                       # Number of conflicting stores.
system.switch_cpus_1.memDep0.insertedLoads    152179933                       # Number of loads inserted to the mem dependence unit.
system.switch_cpus_1.memDep0.insertedStores     59179309                       # Number of stores inserted to the mem dependence unit.
system.switch_cpus_1.misc_regfile_reads     302246067                       # number of misc regfile reads
system.switch_cpus_1.numCycles              425167777                       # number of cpu cycles simulated
system.switch_cpus_1.numWorkItemsCompleted            0                       # number of work items this cpu completed
system.switch_cpus_1.numWorkItemsStarted            0                       # number of work items this cpu started
system.switch_cpus_1.rename.BlockCycles     149870216                       # Number of cycles rename is blocking
system.switch_cpus_1.rename.CommittedMaps    644747803                       # Number of HB maps that are committed
system.switch_cpus_1.rename.IQFullEvents     38349152                       # Number of times rename has blocked due to IQ full
system.switch_cpus_1.rename.IdleCycles       45574791                       # Number of cycles rename is idle
system.switch_cpus_1.rename.LQFullEvents     13691350                       # Number of times rename has blocked due to LQ full
system.switch_cpus_1.rename.ROBFullEvents      2542268                       # Number of times rename has blocked due to ROB full
system.switch_cpus_1.rename.RenameLookups   2464923041                       # Number of register rename lookups that rename has made
system.switch_cpus_1.rename.RenamedInsts    979483109                       # Number of instructions processed by rename
system.switch_cpus_1.rename.RenamedOperands   1199243190                       # Number of destination operands rename has renamed
system.switch_cpus_1.rename.RunCycles       121613259                       # Number of cycles rename is running
system.switch_cpus_1.rename.SQFullEvents     41676126                       # Number of times rename has blocked due to SQ full
system.switch_cpus_1.rename.SquashCycles      8671527                       # Number of cycles rename is squashing
system.switch_cpus_1.rename.UnblockCycles     99395100                       # Number of cycles rename is unblocking
system.switch_cpus_1.rename.UndoneMaps      554495387                       # Number of HB maps that are undone due to squashing
system.switch_cpus_1.rename.fp_rename_lookups      2594151                       # Number of floating rename lookups
system.switch_cpus_1.rename.int_rename_lookups   1572043829                       # Number of integer rename lookups
system.switch_cpus_1.rename.serializeStallCycles          208                       # count of cycles rename stalled for serializing inst
system.switch_cpus_1.rename.serializingInsts            7                       # count of serializing insts renamed
system.switch_cpus_1.rename.skidInsts       115599157                       # count of insts added to the skid buffer
system.switch_cpus_1.rename.tempSerializingInsts            6                       # count of temporary serializing insts renamed
system.switch_cpus_1.rob.rob_reads         1215773160                       # The number of ROB reads
system.switch_cpus_1.rob.rob_writes        1803643690                       # The number of ROB writes
system.switch_cpus_1.timesIdled                   348                       # Number of times that the entire CPU went into an idle state and unscheduled itself
system.tol2bus.snoop_filter.hit_multi_requests            0                       # Number of requests hitting in the snoop filter with multiple (>1) holders of the requested data.
system.tol2bus.snoop_filter.hit_multi_snoops            0                       # Number of snoops hitting in the snoop filter with multiple (>1) holders of the requested data.
system.tol2bus.snoop_filter.hit_single_requests      4721226                       # Number of requests hitting in the snoop filter with a single holder of the requested data.
system.tol2bus.snoop_filter.hit_single_snoops         3049                       # Number of snoops hitting in the snoop filter with a single holder of the requested data.
system.tol2bus.snoop_filter.tot_requests      9405109                       # Total number of requests made to the snoop filter.
system.tol2bus.snoop_filter.tot_snoops           3049                       # Total number of snoops made to the snoop filter.
system.tol3bus.snoop_filter.hit_multi_requests            0                       # Number of requests hitting in the snoop filter with multiple (>1) holders of the requested data.
system.tol3bus.snoop_filter.hit_multi_snoops            0                       # Number of snoops hitting in the snoop filter with multiple (>1) holders of the requested data.
system.tol3bus.snoop_filter.hit_single_requests      2890241                       # Number of requests hitting in the snoop filter with a single holder of the requested data.
system.tol3bus.snoop_filter.hit_single_snoops          795                       # Number of snoops hitting in the snoop filter with a single holder of the requested data.
system.tol3bus.snoop_filter.tot_requests      5780372                       # Total number of requests made to the snoop filter.
system.tol3bus.snoop_filter.tot_snoops            795                       # Total number of snoops made to the snoop filter.
system.membus.trans_dist::ReadResp             477419                       # Transaction distribution
system.membus.trans_dist::WritebackDirty       395912                       # Transaction distribution
system.membus.trans_dist::CleanEvict           363660                       # Transaction distribution
system.membus.trans_dist::ReadExReq            282078                       # Transaction distribution
system.membus.trans_dist::ReadExResp           282078                       # Transaction distribution
system.membus.trans_dist::ReadSharedReq        477419                       # Transaction distribution
system.membus.pkt_count_system.l3.mem_side::system.mem_ctrls.port      2278566                       # Packet count per connected master and slave (bytes)
system.membus.pkt_count_system.l3.mem_side::total      2278566                       # Packet count per connected master and slave (bytes)
system.membus.pkt_count::total                2278566                       # Packet count per connected master and slave (bytes)
system.membus.pkt_size_system.l3.mem_side::system.mem_ctrls.port     73946176                       # Cumulative packet size per connected master and slave (bytes)
system.membus.pkt_size_system.l3.mem_side::total     73946176                       # Cumulative packet size per connected master and slave (bytes)
system.membus.pkt_size::total                73946176                       # Cumulative packet size per connected master and slave (bytes)
system.membus.snoops                                0                       # Total snoops (count)
system.membus.snoopTraffic                          0                       # Total snoop traffic (bytes)
system.membus.snoop_fanout::samples            759497                       # Request fanout histogram
system.membus.snoop_fanout::mean                    0                       # Request fanout histogram
system.membus.snoop_fanout::stdev                   0                       # Request fanout histogram
system.membus.snoop_fanout::underflows              0      0.00%      0.00% # Request fanout histogram
system.membus.snoop_fanout::0                  759497    100.00%    100.00% # Request fanout histogram
system.membus.snoop_fanout::1                       0      0.00%    100.00% # Request fanout histogram
system.membus.snoop_fanout::overflows               0      0.00%    100.00% # Request fanout histogram
system.membus.snoop_fanout::min_value               0                       # Request fanout histogram
system.membus.snoop_fanout::max_value               0                       # Request fanout histogram
system.membus.snoop_fanout::total              759497                       # Request fanout histogram
system.membus.reqLayer2.occupancy          3275778000                       # Layer occupancy (ticks)
system.membus.reqLayer2.utilization               1.5                       # Layer utilization (%)
system.membus.respLayer1.occupancy         4113183000                       # Layer occupancy (ticks)
system.membus.respLayer1.utilization              1.9                       # Layer utilization (%)
system.membus.power_state.pwrStateResidencyTicks::UNDEFINED 1361515270500                       # Cumulative time (in ticks) in various power states
system.switch_cpus_1.dtb.walker.power_state.pwrStateResidencyTicks::UNDEFINED 1361515270500                       # Cumulative time (in ticks) in various power states
system.switch_cpus_1.itb.walker.power_state.pwrStateResidencyTicks::UNDEFINED 1361515270500                       # Cumulative time (in ticks) in various power states
system.switch_cpus_1.power_state.pwrStateResidencyTicks::OFF 1361515270500                       # Cumulative time (in ticks) in various power states
system.switch_cpus.dtb.walker.power_state.pwrStateResidencyTicks::UNDEFINED 1361515270500                       # Cumulative time (in ticks) in various power states
system.switch_cpus.itb.walker.power_state.pwrStateResidencyTicks::UNDEFINED 1361515270500                       # Cumulative time (in ticks) in various power states
system.switch_cpus.power_state.numTransitions            1                       # Number of power state transitions
system.switch_cpus.power_state.pwrStateResidencyTicks::OFF 1361515270500                       # Cumulative time (in ticks) in various power states
system.tol2bus.trans_dist::ReadResp           3962371                       # Transaction distribution
system.tol2bus.trans_dist::WritebackDirty      2147656                       # Transaction distribution
system.tol2bus.trans_dist::WritebackClean          665                       # Transaction distribution
system.tol2bus.trans_dist::CleanEvict         5428557                       # Transaction distribution
system.tol2bus.trans_dist::UpgradeReq           37344                       # Transaction distribution
system.tol2bus.trans_dist::UpgradeResp          37344                       # Transaction distribution
system.tol2bus.trans_dist::ReadExReq           721511                       # Transaction distribution
system.tol2bus.trans_dist::ReadExResp          721511                       # Transaction distribution
system.tol2bus.trans_dist::ReadCleanReq           666                       # Transaction distribution
system.tol2bus.trans_dist::ReadSharedReq      3961706                       # Transaction distribution
system.tol2bus.pkt_count_system.cpu.icache.mem_side::system.l2.cpu_side         1996                       # Packet count per connected master and slave (bytes)
system.tol2bus.pkt_count_system.cpu.dcache.mem_side::system.l2.cpu_side     14124339                       # Packet count per connected master and slave (bytes)
system.tol2bus.pkt_count::total              14126335                       # Packet count per connected master and slave (bytes)
system.tol2bus.pkt_size_system.cpu.icache.mem_side::system.l2.cpu_side        85120                       # Cumulative packet size per connected master and slave (bytes)
system.tol2bus.pkt_size_system.cpu.dcache.mem_side::system.l2.cpu_side    378107456                       # Cumulative packet size per connected master and slave (bytes)
system.tol2bus.pkt_size::total              378192576                       # Cumulative packet size per connected master and slave (bytes)
system.tol2bus.snoops                         2892996                       # Total snoops (count)
system.tol2bus.snoopTraffic                  59068416                       # Total snoop traffic (bytes)
system.tol2bus.snoop_fanout::samples          7614223                       # Request fanout histogram
system.tol2bus.snoop_fanout::mean            0.000400                       # Request fanout histogram
system.tol2bus.snoop_fanout::stdev           0.020007                       # Request fanout histogram
system.tol2bus.snoop_fanout::underflows             0      0.00%      0.00% # Request fanout histogram
system.tol2bus.snoop_fanout::0                7611174     99.96%     99.96% # Request fanout histogram
system.tol2bus.snoop_fanout::1                   3049      0.04%    100.00% # Request fanout histogram
system.tol2bus.snoop_fanout::2                      0      0.00%    100.00% # Request fanout histogram
system.tol2bus.snoop_fanout::3                      0      0.00%    100.00% # Request fanout histogram
system.tol2bus.snoop_fanout::4                      0      0.00%    100.00% # Request fanout histogram
system.tol2bus.snoop_fanout::overflows              0      0.00%    100.00% # Request fanout histogram
system.tol2bus.snoop_fanout::min_value              0                       # Request fanout histogram
system.tol2bus.snoop_fanout::max_value              1                       # Request fanout histogram
system.tol2bus.snoop_fanout::total            7614223                       # Request fanout histogram
system.tol2bus.reqLayer0.occupancy         5927931500                       # Layer occupancy (ticks)
system.tol2bus.reqLayer0.utilization              2.8                       # Layer utilization (%)
system.tol2bus.respLayer1.occupancy        7043497500                       # Layer occupancy (ticks)
system.tol2bus.respLayer1.utilization             3.3                       # Layer utilization (%)
system.tol2bus.respLayer0.occupancy            997999                       # Layer occupancy (ticks)
system.tol2bus.respLayer0.utilization             0.0                       # Layer utilization (%)
system.tol2bus.power_state.pwrStateResidencyTicks::UNDEFINED 1361515270500                       # Cumulative time (in ticks) in various power states
system.voltage_domain.voltage                       1                       # Voltage in Volts
system.clk_domain.clock                          1000                       # Clock period in ticks
system.l2.demand_hits::.switch_cpus_1.inst           58                       # number of demand (read+write) hits
system.l2.demand_hits::.switch_cpus_1.data      1793693                       # number of demand (read+write) hits
system.l2.demand_hits::total                  1793751                       # number of demand (read+write) hits
system.l2.overall_hits::.switch_cpus_1.inst           58                       # number of overall hits
system.l2.overall_hits::.switch_cpus_1.data      1793693                       # number of overall hits
system.l2.overall_hits::total                 1793751                       # number of overall hits
system.l2.demand_misses::.switch_cpus_1.inst          608                       # number of demand (read+write) misses
system.l2.demand_misses::.switch_cpus_1.data      2889524                       # number of demand (read+write) misses
system.l2.demand_misses::total                2890132                       # number of demand (read+write) misses
system.l2.overall_misses::.switch_cpus_1.inst          608                       # number of overall misses
system.l2.overall_misses::.switch_cpus_1.data      2889524                       # number of overall misses
system.l2.overall_misses::total               2890132                       # number of overall misses
system.l2.demand_miss_latency::.switch_cpus_1.inst     57063000                       # number of demand (read+write) miss cycles
system.l2.demand_miss_latency::.switch_cpus_1.data 120747780500                       # number of demand (read+write) miss cycles
system.l2.demand_miss_latency::total     120804843500                       # number of demand (read+write) miss cycles
system.l2.overall_miss_latency::.switch_cpus_1.inst     57063000                       # number of overall miss cycles
system.l2.overall_miss_latency::.switch_cpus_1.data 120747780500                       # number of overall miss cycles
system.l2.overall_miss_latency::total    120804843500                       # number of overall miss cycles
system.l2.demand_accesses::.switch_cpus_1.inst          666                       # number of demand (read+write) accesses
system.l2.demand_accesses::.switch_cpus_1.data      4683217                       # number of demand (read+write) accesses
system.l2.demand_accesses::total              4683883                       # number of demand (read+write) accesses
system.l2.overall_accesses::.switch_cpus_1.inst          666                       # number of overall (read+write) accesses
system.l2.overall_accesses::.switch_cpus_1.data      4683217                       # number of overall (read+write) accesses
system.l2.overall_accesses::total             4683883                       # number of overall (read+write) accesses
system.l2.demand_miss_rate::.switch_cpus_1.inst     0.912913                       # miss rate for demand accesses
system.l2.demand_miss_rate::.switch_cpus_1.data     0.616996                       # miss rate for demand accesses
[...]
system.cpu.dcache.overall_misses::total      21725072                       # number of overall misses
system.cpu.dcache.demand_miss_latency::.switch_cpus.data  35174642500                       # number of demand (read+write) miss cycles
system.cpu.dcache.demand_miss_latency::.switch_cpus_1.data 240161327546                       # number of demand (read+write) miss cycles
system.cpu.dcache.demand_miss_latency::total 275335970046                       # number of demand (read+write) miss cycles
system.cpu.dcache.overall_miss_latency::.switch_cpus.data  35174642500                       # number of overall miss cycles
system.cpu.dcache.overall_miss_latency::.switch_cpus_1.data 240161327546                       # number of overall miss cycles
system.cpu.dcache.overall_miss_latency::total 275335970046                       # number of overall miss cycles
system.cpu.dcache.demand_accesses::.cpu.data    433795342                       # number of demand (read+write) accesses
system.cpu.dcache.demand_accesses::.switch_cpus.data     42364622                       # number of demand (read+write) accesses
system.cpu.dcache.demand_accesses::.switch_cpus_1.data    139055620                       # number of demand (read+write) accesses
system.cpu.dcache.demand_accesses::total    615215584                       # number of demand (read+write) accesses
system.cpu.dcache.overall_accesses::.cpu.data    433795342                       # number of overall (read+write) accesses
system.cpu.dcache.overall_accesses::.switch_cpus.data     42364622                       # number of overall (read+write) accesses
system.cpu.dcache.overall_accesses::.switch_cpus_1.data    139055620                       # number of overall (read+write) accesses
system.cpu.dcache.overall_accesses::total    615215584                       # number of overall (read+write) accesses
system.cpu.dcache.demand_miss_rate::.cpu.data     0.031404                       # miss rate for demand accesses
system.cpu.dcache.demand_miss_rate::.switch_cpus.data     0.031928                       # miss rate for demand accesses
system.cpu.dcache.demand_miss_rate::.switch_cpus_1.data     0.048540                       # miss rate for demand accesses
system.cpu.dcache.demand_miss_rate::total     0.035313                       # miss rate for demand accesses
system.cpu.dcache.overall_miss_rate::.cpu.data     0.031404                       # miss rate for overall accesses
system.cpu.dcache.overall_miss_rate::.switch_cpus.data     0.031928                       # miss rate for overall accesses
system.cpu.dcache.overall_miss_rate::.switch_cpus_1.data     0.048540                       # miss rate for overall accesses
system.cpu.dcache.overall_miss_rate::total     0.035313                       # miss rate for overall accesses
system.cpu.dcache.demand_avg_miss_latency::.switch_cpus.data 26004.610644                       # average overall miss latency
system.cpu.dcache.demand_avg_miss_latency::.switch_cpus_1.data 35581.047855                       # average overall miss latency
system.cpu.dcache.demand_avg_miss_latency::total 12673.650520                       # average overall miss latency
system.cpu.dcache.overall_avg_miss_latency::.switch_cpus.data 26004.610644                       # average overall miss latency
system.cpu.dcache.overall_avg_miss_latency::.switch_cpus_1.data 35581.047855                       # average overall miss latency
system.cpu.dcache.overall_avg_miss_latency::total 12673.650520                       # average overall miss latency
system.cpu.dcache.blocked_cycles::no_mshrs      9757637                       # number of cycles access was blocked
system.cpu.dcache.blocked_cycles::no_targets          396                       # number of cycles access was blocked
system.cpu.dcache.blocked::no_mshrs            727852                       # number of cycles access was blocked
system.cpu.dcache.blocked::no_targets               5                       # number of cycles access was blocked
system.cpu.dcache.avg_blocked_cycles::no_mshrs    13.406073                       # average number of cycles each access was blocked
system.cpu.dcache.avg_blocked_cycles::no_targets    79.200000                       # average number of cycles each access was blocked
system.cpu.dcache.writebacks::.writebacks      9151627                       # number of writebacks
system.cpu.dcache.writebacks::total           9151627                       # number of writebacks
system.cpu.dcache.demand_mshr_hits::.switch_cpus_1.data      2029150                       # number of demand (read+write) MSHR hits
system.cpu.dcache.demand_mshr_hits::total      2029150                       # number of demand (read+write) MSHR hits
system.cpu.dcache.overall_mshr_hits::.switch_cpus_1.data      2029150                       # number of overall MSHR hits
system.cpu.dcache.overall_mshr_hits::total      2029150                       # number of overall MSHR hits
system.cpu.dcache.demand_mshr_misses::.switch_cpus.data      1352631                       # number of demand (read+write) MSHR misses
system.cpu.dcache.demand_mshr_misses::.switch_cpus_1.data      4720548                       # number of demand (read+write) MSHR misses
system.cpu.dcache.demand_mshr_misses::total      6073179                       # number of demand (read+write) MSHR misses
system.cpu.dcache.overall_mshr_misses::.switch_cpus.data      1352631                       # number of overall MSHR misses
system.cpu.dcache.overall_mshr_misses::.switch_cpus_1.data      4720548                       # number of overall MSHR misses
system.cpu.dcache.overall_mshr_misses::total      6073179                       # number of overall MSHR misses
system.cpu.dcache.demand_mshr_miss_latency::.switch_cpus.data  34498327000                       # number of demand (read+write) MSHR miss cycles
system.cpu.dcache.demand_mshr_miss_latency::.switch_cpus_1.data 136269929546                       # number of demand (read+write) MSHR miss cycles
system.cpu.dcache.demand_mshr_miss_latency::total 170768256546                       # number of demand (read+write) MSHR miss cycles
system.cpu.dcache.overall_mshr_miss_latency::.switch_cpus.data  34498327000                       # number of overall MSHR miss cycles
system.cpu.dcache.overall_mshr_miss_latency::.switch_cpus_1.data 136269929546                       # number of overall MSHR miss cycles
system.cpu.dcache.overall_mshr_miss_latency::total 170768256546                       # number of overall MSHR miss cycles
system.cpu.dcache.demand_mshr_miss_rate::.switch_cpus.data     0.031928                       # mshr miss rate for demand accesses
system.cpu.dcache.demand_mshr_miss_rate::.switch_cpus_1.data     0.033947                       # mshr miss rate for demand accesses
system.cpu.dcache.demand_mshr_miss_rate::total     0.009872                       # mshr miss rate for demand accesses
system.cpu.dcache.overall_mshr_miss_rate::.switch_cpus.data     0.031928                       # mshr miss rate for overall accesses
system.cpu.dcache.overall_mshr_miss_rate::.switch_cpus_1.data     0.033947                       # mshr miss rate for overall accesses
system.cpu.dcache.overall_mshr_miss_rate::total     0.009872                       # mshr miss rate for overall accesses
system.cpu.dcache.demand_avg_mshr_miss_latency::.switch_cpus.data 25504.610644                       # average overall mshr miss latency
system.cpu.dcache.demand_avg_mshr_miss_latency::.switch_cpus_1.data 28867.396232                       # average overall mshr miss latency
system.cpu.dcache.demand_avg_mshr_miss_latency::total 28118.429664                       # average overall mshr miss latency
system.cpu.dcache.overall_avg_mshr_miss_latency::.switch_cpus.data 25504.610644                       # average overall mshr miss latency
system.cpu.dcache.overall_avg_mshr_miss_latency::.switch_cpus_1.data 28867.396232                       # average overall mshr miss latency
system.cpu.dcache.overall_avg_mshr_miss_latency::total 28118.429664                       # average overall mshr miss latency
system.cpu.dcache.replacements               19646682                       # number of replacements
system.cpu.dcache.ReadReq_hits::.cpu.data    311147530                       # number of ReadReq hits
system.cpu.dcache.ReadReq_hits::.switch_cpus.data     34157286                       # number of ReadReq hits
system.cpu.dcache.ReadReq_hits::.switch_cpus_1.data    102108599                       # number of ReadReq hits
system.cpu.dcache.ReadReq_hits::total       447413415                       # number of ReadReq hits
system.cpu.dcache.ReadReq_misses::.cpu.data     10608437                       # number of ReadReq misses
system.cpu.dcache.ReadReq_misses::.switch_cpus.data      1054639                       # number of ReadReq misses
system.cpu.dcache.ReadReq_misses::.switch_cpus_1.data      5990823                       # number of ReadReq misses
system.cpu.dcache.ReadReq_misses::total      17653899                       # number of ReadReq misses
system.cpu.dcache.ReadReq_miss_latency::.switch_cpus.data  22011220500                       # number of ReadReq miss cycles
system.cpu.dcache.ReadReq_miss_latency::.switch_cpus_1.data 204114420500                       # number of ReadReq miss cycles
system.cpu.dcache.ReadReq_miss_latency::total 226125641000                       # number of ReadReq miss cycles
system.cpu.dcache.ReadReq_accesses::.cpu.data    321755967                       # number of ReadReq accesses(hits+misses)
system.cpu.dcache.ReadReq_accesses::.switch_cpus.data     35211925                       # number of ReadReq accesses(hits+misses)
system.cpu.dcache.ReadReq_accesses::.switch_cpus_1.data    108099422                       # number of ReadReq accesses(hits+misses)
system.cpu.dcache.ReadReq_accesses::total    465067314                       # number of ReadReq accesses(hits+misses)
system.cpu.dcache.ReadReq_miss_rate::.cpu.data     0.032970                       # miss rate for ReadReq accesses
system.cpu.dcache.ReadReq_miss_rate::.switch_cpus.data     0.029951                       # miss rate for ReadReq accesses
system.cpu.dcache.ReadReq_miss_rate::.switch_cpus_1.data     0.055420                       # miss rate for ReadReq accesses
system.cpu.dcache.ReadReq_miss_rate::total     0.037960                       # miss rate for ReadReq accesses
system.cpu.dcache.ReadReq_avg_miss_latency::.switch_cpus.data 20870.857706                       # average ReadReq miss latency
system.cpu.dcache.ReadReq_avg_miss_latency::.switch_cpus_1.data 34071.181956                       # average ReadReq miss latency
system.cpu.dcache.ReadReq_avg_miss_latency::total 12808.821496                       # average ReadReq miss latency
system.cpu.dcache.ReadReq_mshr_hits::.switch_cpus_1.data      2029115                       # number of ReadReq MSHR hits
system.cpu.dcache.ReadReq_mshr_hits::total      2029115                       # number of ReadReq MSHR hits
system.cpu.dcache.ReadReq_mshr_misses::.switch_cpus.data      1054639                       # number of ReadReq MSHR misses
system.cpu.dcache.ReadReq_mshr_misses::.switch_cpus_1.data      3961708                       # number of ReadReq MSHR misses
system.cpu.dcache.ReadReq_mshr_misses::total      5016347                       # number of ReadReq MSHR misses
system.cpu.dcache.ReadReq_mshr_miss_latency::.switch_cpus.data  21483901000                       # number of ReadReq MSHR miss cycles
system.cpu.dcache.ReadReq_mshr_miss_latency::.switch_cpus_1.data 100602629000                       # number of ReadReq MSHR miss cycles
system.cpu.dcache.ReadReq_mshr_miss_latency::total 122086530000                       # number of ReadReq MSHR miss cycles
system.cpu.dcache.ReadReq_mshr_miss_rate::.switch_cpus.data     0.029951                       # mshr miss rate for ReadReq accesses
system.cpu.dcache.ReadReq_mshr_miss_rate::.switch_cpus_1.data     0.036649                       # mshr miss rate for ReadReq accesses
system.cpu.dcache.ReadReq_mshr_miss_rate::total     0.010786                       # mshr miss rate for ReadReq accesses
system.cpu.dcache.ReadReq_avg_mshr_miss_latency::.switch_cpus.data 20370.857706                       # average ReadReq mshr miss latency
system.cpu.dcache.ReadReq_avg_mshr_miss_latency::.switch_cpus_1.data 25393.751634                       # average ReadReq mshr miss latency
system.cpu.dcache.ReadReq_avg_mshr_miss_latency::total 24337.736205                       # average ReadReq mshr miss latency
system.cpu.dcache.WriteReq_hits::.cpu.data    109025069                       # number of WriteReq hits
system.cpu.dcache.WriteReq_hits::.switch_cpus.data      6854705                       # number of WriteReq hits
system.cpu.dcache.WriteReq_hits::.switch_cpus_1.data     30197323                       # number of WriteReq hits
system.cpu.dcache.WriteReq_hits::total      146077097                       # number of WriteReq hits
system.cpu.dcache.WriteReq_misses::.cpu.data      3014306                       # number of WriteReq misses
system.cpu.dcache.WriteReq_misses::.switch_cpus.data       297992                       # number of WriteReq misses
system.cpu.dcache.WriteReq_misses::.switch_cpus_1.data       758875                       # number of WriteReq misses
system.cpu.dcache.WriteReq_misses::total      4071173                       # number of WriteReq misses
system.cpu.dcache.WriteReq_miss_latency::.switch_cpus.data  13163422000                       # number of WriteReq miss cycles
system.cpu.dcache.WriteReq_miss_latency::.switch_cpus_1.data  36046907046                       # number of WriteReq miss cycles
system.cpu.dcache.WriteReq_miss_latency::total  49210329046                       # number of WriteReq miss cycles
system.cpu.dcache.WriteReq_accesses::.cpu.data    112039375                       # number of WriteReq accesses(hits+misses)
system.cpu.dcache.WriteReq_accesses::.switch_cpus.data      7152697                       # number of WriteReq accesses(hits+misses)
system.cpu.dcache.WriteReq_accesses::.switch_cpus_1.data     30956198                       # number of WriteReq accesses(hits+misses)
system.cpu.dcache.WriteReq_accesses::total    150148270                       # number of WriteReq accesses(hits+misses)
system.cpu.dcache.WriteReq_miss_rate::.cpu.data     0.026904                       # miss rate for WriteReq accesses
system.cpu.dcache.WriteReq_miss_rate::.switch_cpus.data     0.041661                       # miss rate for WriteReq accesses
system.cpu.dcache.WriteReq_miss_rate::.switch_cpus_1.data     0.024514                       # miss rate for WriteReq accesses
system.cpu.dcache.WriteReq_miss_rate::total     0.027114                       # miss rate for WriteReq accesses
system.cpu.dcache.WriteReq_avg_miss_latency::.switch_cpus.data 44173.742919                       # average WriteReq miss latency
system.cpu.dcache.WriteReq_avg_miss_latency::.switch_cpus_1.data 47500.454022                       # average WriteReq miss latency
system.cpu.dcache.WriteReq_avg_miss_latency::total 12087.506241                       # average WriteReq miss latency
system.cpu.dcache.WriteReq_mshr_hits::.switch_cpus_1.data           35                       # number of WriteReq MSHR hits
system.cpu.dcache.WriteReq_mshr_hits::total           35                       # number of WriteReq MSHR hits
system.cpu.dcache.WriteReq_mshr_misses::.switch_cpus.data       297992                       # number of WriteReq MSHR misses
system.cpu.dcache.WriteReq_mshr_misses::.switch_cpus_1.data       758840                       # number of WriteReq MSHR misses
system.cpu.dcache.WriteReq_mshr_misses::total      1056832                       # number of WriteReq MSHR misses
system.cpu.dcache.WriteReq_mshr_miss_latency::.switch_cpus.data  13014426000                       # number of WriteReq MSHR miss cycles
system.cpu.dcache.WriteReq_mshr_miss_latency::.switch_cpus_1.data  35667300546                       # number of WriteReq MSHR miss cycles
system.cpu.dcache.WriteReq_mshr_miss_latency::total  48681726546                       # number of WriteReq MSHR miss cycles
system.cpu.dcache.WriteReq_mshr_miss_rate::.switch_cpus.data     0.041661                       # mshr miss rate for WriteReq accesses
system.cpu.dcache.WriteReq_mshr_miss_rate::.switch_cpus_1.data     0.024513                       # mshr miss rate for WriteReq accesses
system.cpu.dcache.WriteReq_mshr_miss_rate::total     0.007039                       # mshr miss rate for WriteReq accesses
system.cpu.dcache.WriteReq_avg_mshr_miss_latency::.switch_cpus.data 43673.742919                       # average WriteReq mshr miss latency
system.cpu.dcache.WriteReq_avg_mshr_miss_latency::.switch_cpus_1.data 47002.399117                       # average WriteReq mshr miss latency
system.cpu.dcache.WriteReq_avg_mshr_miss_latency::total 46063.827123                       # average WriteReq mshr miss latency
system.cpu.dcache.power_state.pwrStateResidencyTicks::UNDEFINED 1361515270500                       # Cumulative time (in ticks) in various power states
system.cpu.dcache.tags.tagsinuse           511.995678                       # Cycle average of tags in use
system.cpu.dcache.tags.total_refs           613208218                       # Total number of references to valid blocks.
system.cpu.dcache.tags.sampled_refs          19647194                       # Sample count of references to valid blocks.
system.cpu.dcache.tags.avg_refs             31.210982                       # Average number of references to valid blocks.
system.cpu.dcache.tags.warmup_cycle              1500                       # Cycle when the warmup percentage was hit.
system.cpu.dcache.tags.occ_blocks::.cpu.data   385.919652                       # Average occupied blocks per requestor
system.cpu.dcache.tags.occ_blocks::.switch_cpus.data    46.138565                       # Average occupied blocks per requestor
system.cpu.dcache.tags.occ_blocks::.switch_cpus_1.data    79.937461                       # Average occupied blocks per requestor
system.cpu.dcache.tags.occ_percent::.cpu.data     0.753749                       # Average percentage of cache occupancy
system.cpu.dcache.tags.occ_percent::.switch_cpus.data     0.090114                       # Average percentage of cache occupancy
system.cpu.dcache.tags.occ_percent::.switch_cpus_1.data     0.156128                       # Average percentage of cache occupancy
system.cpu.dcache.tags.occ_percent::total     0.999992                       # Average percentage of cache occupancy
system.cpu.dcache.tags.occ_task_id_blocks::1024          512                       # Occupied blocks per task id
system.cpu.dcache.tags.age_task_id_blocks_1024::0          194                       # Occupied blocks per task id
system.cpu.dcache.tags.age_task_id_blocks_1024::1          318                       # Occupied blocks per task id
system.cpu.dcache.tags.occ_task_id_percent::1024            1                       # Percentage of cache occupancy per task id
system.cpu.dcache.tags.tag_accesses        2480509530                       # Number of tag accesses
system.cpu.dcache.tags.data_accesses       2480509530                       # Number of data accesses
system.cpu.dcache.tags.power_state.pwrStateResidencyTicks::UNDEFINED 1361515270500                       # Cumulative time (in ticks) in various power states
system.cpu.power_state.numTransitions               2                       # Number of power state transitions
system.cpu.power_state.pwrStateResidencyTicks::ON 1026110800500                       # Cumulative time (in ticks) in various power states
system.cpu.power_state.pwrStateResidencyTicks::OFF 335404470000                       # Cumulative time (in ticks) in various power states

---------- End Simulation Statistics   ----------
