
---------- Begin Simulation Statistics ----------
final_tick                               1242976914500                       # Number of ticks from beginning of simulation (restored from checkpoints and never reset)
host_inst_rate                                 622011                       # Simulator instruction rate (inst/s)
host_mem_usage                                 766760                       # Number of bytes of host memory used
host_op_rate                                   945137                       # Simulator op (including micro ops) rate (op/s)
host_seconds                                  2904.56                       # Real time elapsed on the host
host_tick_rate                               61747515                       # Simulator tick rate (ticks/s)
sim_freq                                 1000000000000                       # Frequency of simulated ticks
sim_insts                                  1806665645                       # Number of instructions simulated
sim_ops                                    2745204693                       # Number of ops (including micro ops) simulated
sim_seconds                                  0.179349                       # Number of seconds simulated
sim_ticks                                179349213000                       # Number of ticks simulated
system.cpu.committedInsts                           0                       # Number of instructions committed
system.cpu.committedOps                             0                       # Number of ops (including micro ops) committed
system.cpu.dtb.rdAccesses                           0                       # TLB accesses on read requests
system.cpu.dtb.rdMisses                             0                       # TLB misses on read requests
system.cpu.dtb.wrAccesses                           0                       # TLB accesses on write requests
system.cpu.dtb.wrMisses                             0                       # TLB misses on write requests
system.cpu.idle_fraction                            0                       # Percentage of idle cycles
system.cpu.itb.rdAccesses                           0                       # TLB accesses on read requests
system.cpu.itb.rdMisses                             0                       # TLB misses on read requests
system.cpu.itb.wrAccesses                           0                       # TLB accesses on write requests
system.cpu.itb.wrMisses                             0                       # TLB misses on write requests
system.cpu.not_idle_fraction                        1                       # Percentage of non-idle cycles
system.cpu.numCycles                                0                       # number of cpu cycles simulated
system.cpu.numWorkItemsCompleted                    0                       # number of work items this cpu completed
system.cpu.numWorkItemsStarted                      0                       # number of work items this cpu started
system.cpu.num_busy_cycles                          0                       # Number of busy cycles
system.cpu.num_conditional_control_insts            0                       # number of instructions that are conditional controls
system.cpu.num_fp_alu_accesses                      0                       # Number of float alu accesses
system.cpu.num_fp_insts                             0                       # number of float instructions
system.cpu.num_fp_register_reads                    0                       # number of times the floating registers were read
system.cpu.num_fp_register_writes                   0                       # number of times the floating registers were written
system.cpu.num_func_calls                           0                       # number of times a function call or return occured
system.cpu.num_idle_cycles                          0                       # Number of idle cycles
system.cpu.num_int_alu_accesses                     0                       # Number of integer alu accesses
system.cpu.num_int_insts                            0                       # number of integer instructions
system.cpu.num_int_register_reads                   0                       # number of times the integer registers were read
system.cpu.num_int_register_writes                  0                       # number of times the integer registers were written
system.cpu.num_load_insts                           0                       # Number of load instructions
system.cpu.num_mem_refs                             0                       # number of memory refs
system.cpu.num_store_insts                          0                       # Number of store instructions
system.cpu.num_vec_alu_accesses                     0                       # Number of vector alu accesses
system.cpu.num_vec_insts                            0                       # number of vector instructions
system.cpu.num_vec_register_reads                   0                       # number of times the vector registers were read
system.cpu.num_vec_register_writes                  0                       # number of times the vector registers were written
system.cpu.op_class::No_OpClass                     0                       # Class of executed instruction
system.cpu.op_class::IntAlu                         0                       # Class of executed instruction
system.cpu.op_class::IntMult                        0                       # Class of executed instruction
system.cpu.op_class::IntDiv                         0                       # Class of executed instruction
system.cpu.op_class::FloatAdd                       0                       # Class of executed instruction
system.cpu.op_class::FloatCmp                       0                       # Class of executed instruction
system.cpu.op_class::FloatCvt                       0                       # Class of executed instruction
system.cpu.op_class::FloatMult                      0                       # Class of executed instruction
system.cpu.op_class::FloatMultAcc                   0                       # Class of executed instruction
system.cpu.op_class::FloatDiv                       0                       # Class of executed instruction
system.cpu.op_class::FloatMisc                      0                       # Class of executed instruction
system.cpu.op_class::FloatSqrt                      0                       # Class of executed instruction
system.cpu.op_class::SimdAdd                        0                       # Class of executed instruction
system.cpu.op_class::SimdAddAcc                     0                       # Class of executed instruction
system.cpu.op_class::SimdAlu                        0                       # Class of executed instruction
system.cpu.op_class::SimdCmp                        0                       # Class of executed instruction
system.cpu.op_class::SimdCvt                        0                       # Class of executed instruction
system.cpu.op_class::SimdMisc                       0                       # Class of executed instruction
system.cpu.op_class::SimdMult                       0                       # Class of executed instruction
system.cpu.op_class::SimdMultAcc                    0                       # Class of executed instruction
system.cpu.op_class::SimdShift                      0                       # Class of executed instruction
system.cpu.op_class::SimdShiftAcc                   0                       # Class of executed instruction
system.cpu.op_class::SimdDiv                        0                       # Class of executed instruction
system.cpu.op_class::SimdSqrt                       0                       # Class of executed instruction
system.cpu.op_class::SimdFloatAdd                   0                       # Class of executed instruction
system.cpu.op_class::SimdFloatAlu                   0                       # Class of executed instruction
system.cpu.op_class::SimdFloatCmp                   0                       # Class of executed instruction
system.cpu.op_class::SimdFloatCvt                   0                       # Class of executed instruction
system.cpu.op_class::SimdFloatDiv                   0                       # Class of executed instruction
system.cpu.op_class::SimdFloatMisc                  0                       # Class of executed instruction
system.cpu.op_class::SimdFloatMult                  0                       # Class of executed instruction
system.cpu.op_class::SimdFloatMultAcc               0                       # Class of executed instruction
system.cpu.op_class::SimdFloatSqrt                  0                       # Class of executed instruction
system.cpu.op_class::SimdReduceAdd                  0                       # Class of executed instruction
system.cpu.op_class::SimdReduceAlu                  0                       # Class of executed instruction
system.cpu.op_class::SimdReduceCmp                  0                       # Class of executed instruction
system.cpu.op_class::SimdFloatReduceAdd             0                       # Class of executed instruction
system.cpu.op_class::SimdFloatReduceCmp             0                       # Class of executed instruction
system.cpu.op_class::SimdAes                        0                       # Class of executed instruction
system.cpu.op_class::SimdAesMix                     0                       # Class of executed instruction
system.cpu.op_class::SimdSha1Hash                   0                       # Class of executed instruction
system.cpu.op_class::SimdSha1Hash2                  0                       # Class of executed instruction
system.cpu.op_class::SimdSha256Hash                 0                       # Class of executed instruction
system.cpu.op_class::SimdSha256Hash2                0                       # Class of executed instruction
system.cpu.op_class::SimdShaSigma2                  0                       # Class of executed instruction
system.cpu.op_class::SimdShaSigma3                  0                       # Class of executed instruction
system.cpu.op_class::SimdPredAlu                    0                       # Class of executed instruction
system.cpu.op_class::MemRead                        0                       # Class of executed instruction
system.cpu.op_class::MemWrite                       0                       # Class of executed instruction
system.cpu.op_class::FloatMemRead                   0                       # Class of executed instruction
system.cpu.op_class::FloatMemWrite                  0                       # Class of executed instruction
system.cpu.op_class::IprAccess                      0                       # Class of executed instruction
system.cpu.op_class::InstPrefetch                   0                       # Class of executed instruction
system.cpu.op_class::total                          0                       # Class of executed instruction
system.cpu.workload.numSyscalls                     0                       # Number of system calls
system.membus.snoop_filter.hit_multi_requests            0                       # Number of requests hitting in the snoop filter with multiple (>1) holders of the requested data.
system.membus.snoop_filter.hit_multi_snoops            0                       # Number of snoops hitting in the snoop filter with multiple (>1) holders of the requested data.
system.membus.snoop_filter.hit_single_requests       289917                       # Number of requests hitting in the snoop filter with a single holder of the requested data.
system.membus.snoop_filter.hit_single_snoops            0                       # Number of snoops hitting in the snoop filter with a single holder of the requested data.
system.membus.snoop_filter.tot_requests        579795                       # Total number of requests made to the snoop filter.
system.membus.snoop_filter.tot_snoops               0                       # Total number of snoops made to the snoop filter.
system.switch_cpus.committedInsts                   0                       # Number of instructions committed
system.switch_cpus.committedOps                     0                       # Number of ops (including micro ops) committed
system.switch_cpus.dtb.rdAccesses                   0                       # TLB accesses on read requests
system.switch_cpus.dtb.rdMisses                     0                       # TLB misses on read requests
system.switch_cpus.dtb.wrAccesses                   0                       # TLB accesses on write requests
system.switch_cpus.dtb.wrMisses                     0                       # TLB misses on write requests
system.switch_cpus.idle_fraction                    0                       # Percentage of idle cycles
system.switch_cpus.itb.rdAccesses                   0                       # TLB accesses on read requests
system.switch_cpus.itb.rdMisses                     0                       # TLB misses on read requests
system.switch_cpus.itb.wrAccesses                   0                       # TLB accesses on write requests
system.switch_cpus.itb.wrMisses                     0                       # TLB misses on write requests
system.switch_cpus.not_idle_fraction                1                       # Percentage of non-idle cycles
system.switch_cpus.numCycles                        0                       # number of cpu cycles simulated
system.switch_cpus.numWorkItemsCompleted            0                       # number of work items this cpu completed
system.switch_cpus.numWorkItemsStarted              0                       # number of work items this cpu started
system.switch_cpus.num_busy_cycles                  0                       # Number of busy cycles
system.switch_cpus.num_conditional_control_insts            0                       # number of instructions that are conditional controls
system.switch_cpus.num_fp_alu_accesses              0                       # Number of float alu accesses
system.switch_cpus.num_fp_insts                     0                       # number of float instructions
system.switch_cpus.num_fp_register_reads            0                       # number of times the floating registers were read
system.switch_cpus.num_fp_register_writes            0                       # number of times the floating registers were written
system.switch_cpus.num_func_calls                   0                       # number of times a function call or return occured
system.switch_cpus.num_idle_cycles                  0                       # Number of idle cycles
system.switch_cpus.num_int_alu_accesses             0                       # Number of integer alu accesses
system.switch_cpus.num_int_insts                    0                       # number of integer instructions
system.switch_cpus.num_int_register_reads            0                       # number of times the integer registers were read
system.switch_cpus.num_int_register_writes            0                       # number of times the integer registers were written
system.switch_cpus.num_load_insts                   0                       # Number of load instructions
system.switch_cpus.num_mem_refs                     0                       # number of memory refs
system.switch_cpus.num_store_insts                  0                       # Number of store instructions
system.switch_cpus.num_vec_alu_accesses             0                       # Number of vector alu accesses
system.switch_cpus.num_vec_insts                    0                       # number of vector instructions
system.switch_cpus.num_vec_register_reads            0                       # number of times the vector registers were read
system.switch_cpus.num_vec_register_writes            0                       # number of times the vector registers were written
system.switch_cpus.op_class::No_OpClass             0                       # Class of executed instruction
system.switch_cpus.op_class::IntAlu                 0                       # Class of executed instruction
system.switch_cpus.op_class::IntMult                0                       # Class of executed instruction
system.switch_cpus.op_class::IntDiv                 0                       # Class of executed instruction
system.switch_cpus.op_class::FloatAdd               0                       # Class of executed instruction
system.switch_cpus.op_class::FloatCmp               0                       # Class of executed instruction
system.switch_cpus.op_class::FloatCvt               0                       # Class of executed instruction
system.switch_cpus.op_class::FloatMult              0                       # Class of executed instruction
system.switch_cpus.op_class::FloatMultAcc            0                       # Class of executed instruction
system.switch_cpus.op_class::FloatDiv               0                       # Class of executed instruction
system.switch_cpus.op_class::FloatMisc              0                       # Class of executed instruction
system.switch_cpus.op_class::FloatSqrt              0                       # Class of executed instruction
system.switch_cpus.op_class::SimdAdd                0                       # Class of executed instruction
system.switch_cpus.op_class::SimdAddAcc             0                       # Class of executed instruction
system.switch_cpus.op_class::SimdAlu                0                       # Class of executed instruction
system.switch_cpus.op_class::SimdCmp                0                       # Class of executed instruction
system.switch_cpus.op_class::SimdCvt                0                       # Class of executed instruction
system.switch_cpus.op_class::SimdMisc               0                       # Class of executed instruction
system.switch_cpus.op_class::SimdMult               0                       # Class of executed instruction
system.switch_cpus.op_class::SimdMultAcc            0                       # Class of executed instruction
system.switch_cpus.op_class::SimdShift              0                       # Class of executed instruction
system.switch_cpus.op_class::SimdShiftAcc            0                       # Class of executed instruction
system.switch_cpus.op_class::SimdDiv                0                       # Class of executed instruction
system.switch_cpus.op_class::SimdSqrt               0                       # Class of executed instruction
system.switch_cpus.op_class::SimdFloatAdd            0                       # Class of executed instruction
system.switch_cpus.op_class::SimdFloatAlu            0                       # Class of executed instruction
system.switch_cpus.op_class::SimdFloatCmp            0                       # Class of executed instruction
system.switch_cpus.op_class::SimdFloatCvt            0                       # Class of executed instruction
system.switch_cpus.op_class::SimdFloatDiv            0                       # Class of executed instruction
system.switch_cpus.op_class::SimdFloatMisc            0                       # Class of executed instruction
system.switch_cpus.op_class::SimdFloatMult            0                       # Class of executed instruction
system.switch_cpus.op_class::SimdFloatMultAcc            0                       # Class of executed instruction
system.switch_cpus.op_class::SimdFloatSqrt            0                       # Class of executed instruction
system.switch_cpus.op_class::SimdReduceAdd            0                       # Class of executed instruction
system.switch_cpus.op_class::SimdReduceAlu            0                       # Class of executed instruction
system.switch_cpus.op_class::SimdReduceCmp            0                       # Class of executed instruction
system.switch_cpus.op_class::SimdFloatReduceAdd            0                       # Class of executed instruction
system.switch_cpus.op_class::SimdFloatReduceCmp            0                       # Class of executed instruction
system.switch_cpus.op_class::SimdAes                0                       # Class of executed instruction
system.switch_cpus.op_class::SimdAesMix             0                       # Class of executed instruction
system.switch_cpus.op_class::SimdSha1Hash            0                       # Class of executed instruction
system.switch_cpus.op_class::SimdSha1Hash2            0                       # Class of executed instruction
system.switch_cpus.op_class::SimdSha256Hash            0                       # Class of executed instruction
system.switch_cpus.op_class::SimdSha256Hash2            0                       # Class of executed instruction
system.switch_cpus.op_class::SimdShaSigma2            0                       # Class of executed instruction
system.switch_cpus.op_class::SimdShaSigma3            0                       # Class of executed instruction
system.switch_cpus.op_class::SimdPredAlu            0                       # Class of executed instruction
system.switch_cpus.op_class::MemRead                0                       # Class of executed instruction
system.switch_cpus.op_class::MemWrite               0                       # Class of executed instruction
system.switch_cpus.op_class::FloatMemRead            0                       # Class of executed instruction
system.switch_cpus.op_class::FloatMemWrite            0                       # Class of executed instruction
system.switch_cpus.op_class::IprAccess              0                       # Class of executed instruction
system.switch_cpus.op_class::InstPrefetch            0                       # Class of executed instruction
system.switch_cpus.op_class::total                  0                       # Class of executed instruction
system.switch_cpus_1.branchPred.BTBCorrect            0                       # Number of correct BTB predictions (this stat may not work properly.
system.switch_cpus_1.branchPred.BTBHitPct          nan                       # BTB Hit Percentage
system.switch_cpus_1.branchPred.BTBHits             0                       # Number of BTB hits
system.switch_cpus_1.branchPred.BTBLookups            0                       # Number of BTB lookups
system.switch_cpus_1.branchPred.RASInCorrect            2                       # Number of incorrect RAS predictions.
system.switch_cpus_1.branchPred.condIncorrect       191707                       # Number of conditional branches incorrect
system.switch_cpus_1.branchPred.condPredicted     35229921                       # Number of conditional branches predicted
system.switch_cpus_1.branchPred.indirectHits     23109399                       # Number of indirect target hits.
system.switch_cpus_1.branchPred.indirectLookups     23178083                       # Number of indirect predictor lookups.
system.switch_cpus_1.branchPred.indirectMisses        68684                       # Number of indirect misses.
system.switch_cpus_1.branchPred.lookups      35691230                       # Number of BP lookups
system.switch_cpus_1.branchPred.usedRAS        237526                       # Number of times the RAS was used to get a target.
system.switch_cpus_1.branchPredindirectMispredicted        12195                       # Number of mispredicted indirect branches.
system.switch_cpus_1.cc_regfile_reads      1135828592                       # number of cc regfile reads
system.switch_cpus_1.cc_regfile_writes      565067231                       # number of cc regfile writes
system.switch_cpus_1.commit.amos                    0                       # Number of atomic instructions committed
system.switch_cpus_1.commit.branchMispredicts       191714                       # The number of times a branch was mispredicted
system.switch_cpus_1.commit.branches         34117441                       # Number of branches committed
system.switch_cpus_1.commit.bw_lim_events     87351949                       # number cycles where commit BW limit reached
system.switch_cpus_1.commit.commitSquashedInsts      9584136                       # The number of squashed insts skipped by commit
system.switch_cpus_1.commit.committedInsts    706665642                       # Number of instructions committed
system.switch_cpus_1.commit.committedOps   1070022150                       # Number of ops (including micro ops) committed
system.switch_cpus_1.commit.committed_per_cycle::samples    357294711                       # Number of insts commited each cycle
system.switch_cpus_1.commit.committed_per_cycle::mean     2.994789                       # Number of insts commited each cycle
system.switch_cpus_1.commit.committed_per_cycle::stdev     3.237448                       # Number of insts commited each cycle
system.switch_cpus_1.commit.committed_per_cycle::underflows            0      0.00%      0.00% # Number of insts commited each cycle
system.switch_cpus_1.commit.committed_per_cycle::0    106601294     29.84%     29.84% # Number of insts commited each cycle
system.switch_cpus_1.commit.committed_per_cycle::1     93196731     26.08%     55.92% # Number of insts commited each cycle
system.switch_cpus_1.commit.committed_per_cycle::2      5149331      1.44%     57.36% # Number of insts commited each cycle
system.switch_cpus_1.commit.committed_per_cycle::3     32792565      9.18%     66.54% # Number of insts commited each cycle
system.switch_cpus_1.commit.committed_per_cycle::4     16526890      4.63%     71.16% # Number of insts commited each cycle
system.switch_cpus_1.commit.committed_per_cycle::5       946456      0.26%     71.43% # Number of insts commited each cycle
system.switch_cpus_1.commit.committed_per_cycle::6      4612835      1.29%     72.72% # Number of insts commited each cycle
system.switch_cpus_1.commit.committed_per_cycle::7     10116660      2.83%     75.55% # Number of insts commited each cycle
system.switch_cpus_1.commit.committed_per_cycle::8     87351949     24.45%    100.00% # Number of insts commited each cycle
system.switch_cpus_1.commit.committed_per_cycle::overflows            0      0.00%    100.00% # Number of insts commited each cycle
system.switch_cpus_1.commit.committed_per_cycle::min_value            0                       # Number of insts commited each cycle
system.switch_cpus_1.commit.committed_per_cycle::max_value            8                       # Number of insts commited each cycle
system.switch_cpus_1.commit.committed_per_cycle::total    357294711                       # Number of insts commited each cycle
system.switch_cpus_1.commit.fp_insts          2806123                       # Number of committed floating point instructions.
system.switch_cpus_1.commit.function_calls       181465                       # Number of function calls committed.
system.switch_cpus_1.commit.int_insts      1067880488                       # Number of committed integer instructions.
system.switch_cpus_1.commit.loads           303327417                       # Number of loads committed
system.switch_cpus_1.commit.membars                 0                       # Number of memory barriers committed
system.switch_cpus_1.commit.op_class_0::No_OpClass       143762      0.01%      0.01% # Class of committed instruction
system.switch_cpus_1.commit.op_class_0::IntAlu    656079242     61.31%     61.33% # Class of committed instruction
system.switch_cpus_1.commit.op_class_0::IntMult       288736      0.03%     61.35% # Class of committed instruction
system.switch_cpus_1.commit.op_class_0::IntDiv            0      0.00%     61.35% # Class of committed instruction
system.switch_cpus_1.commit.op_class_0::FloatAdd       110020      0.01%     61.37% # Class of committed instruction
system.switch_cpus_1.commit.op_class_0::FloatCmp            0      0.00%     61.37% # Class of committed instruction
system.switch_cpus_1.commit.op_class_0::FloatCvt            0      0.00%     61.37% # Class of committed instruction
system.switch_cpus_1.commit.op_class_0::FloatMult            0      0.00%     61.37% # Class of committed instruction
system.switch_cpus_1.commit.op_class_0::FloatMultAcc            0      0.00%     61.37% # Class of committed instruction
system.switch_cpus_1.commit.op_class_0::FloatDiv            0      0.00%     61.37% # Class of committed instruction
system.switch_cpus_1.commit.op_class_0::FloatMisc            0      0.00%     61.37% # Class of committed instruction
system.switch_cpus_1.commit.op_class_0::FloatSqrt            0      0.00%     61.37% # Class of committed instruction
system.switch_cpus_1.commit.op_class_0::SimdAdd            0      0.00%     61.37% # Class of committed instruction
system.switch_cpus_1.commit.op_class_0::SimdAddAcc            0      0.00%     61.37% # Class of committed instruction
system.switch_cpus_1.commit.op_class_0::SimdAlu       252716      0.02%     61.39% # Class of committed instruction
system.switch_cpus_1.commit.op_class_0::SimdCmp            0      0.00%     61.39% # Class of committed instruction
system.switch_cpus_1.commit.op_class_0::SimdCvt       217392      0.02%     61.41% # Class of committed instruction
system.switch_cpus_1.commit.op_class_0::SimdMisc       434438      0.04%     61.45% # Class of committed instruction
system.switch_cpus_1.commit.op_class_0::SimdMult            0      0.00%     61.45% # Class of committed instruction
system.switch_cpus_1.commit.op_class_0::SimdMultAcc            0      0.00%     61.45% # Class of committed instruction
system.switch_cpus_1.commit.op_class_0::SimdShift            0      0.00%     61.45% # Class of committed instruction
system.switch_cpus_1.commit.op_class_0::SimdShiftAcc            0      0.00%     61.45% # Class of committed instruction
system.switch_cpus_1.commit.op_class_0::SimdDiv            0      0.00%     61.45% # Class of committed instruction
system.switch_cpus_1.commit.op_class_0::SimdSqrt            0      0.00%     61.45% # Class of committed instruction
system.switch_cpus_1.commit.op_class_0::SimdFloatAdd       369672      0.03%     61.48% # Class of committed instruction
system.switch_cpus_1.commit.op_class_0::SimdFloatAlu            0      0.00%     61.48% # Class of committed instruction
system.switch_cpus_1.commit.op_class_0::SimdFloatCmp          104      0.00%     61.48% # Class of committed instruction
system.switch_cpus_1.commit.op_class_0::SimdFloatCvt       551947      0.05%     61.54% # Class of committed instruction
system.switch_cpus_1.commit.op_class_0::SimdFloatDiv        72288      0.01%     61.54% # Class of committed instruction
system.switch_cpus_1.commit.op_class_0::SimdFloatMisc            0      0.00%     61.54% # Class of committed instruction
system.switch_cpus_1.commit.op_class_0::SimdFloatMult        37299      0.00%     61.55% # Class of committed instruction
system.switch_cpus_1.commit.op_class_0::SimdFloatMultAcc            0      0.00%     61.55% # Class of committed instruction
system.switch_cpus_1.commit.op_class_0::SimdFloatSqrt            0      0.00%     61.55% # Class of committed instruction
system.switch_cpus_1.commit.op_class_0::SimdReduceAdd            0      0.00%     61.55% # Class of committed instruction
system.switch_cpus_1.commit.op_class_0::SimdReduceAlu            0      0.00%     61.55% # Class of committed instruction
system.switch_cpus_1.commit.op_class_0::SimdReduceCmp            0      0.00%     61.55% # Class of committed instruction
system.switch_cpus_1.commit.op_class_0::SimdFloatReduceAdd            0      0.00%     61.55% # Class of committed instruction
system.switch_cpus_1.commit.op_class_0::SimdFloatReduceCmp            0      0.00%     61.55% # Class of committed instruction
system.switch_cpus_1.commit.op_class_0::SimdAes            0      0.00%     61.55% # Class of committed instruction
system.switch_cpus_1.commit.op_class_0::SimdAesMix            0      0.00%     61.55% # Class of committed instruction
system.switch_cpus_1.commit.op_class_0::SimdSha1Hash            0      0.00%     61.55% # Class of committed instruction
system.switch_cpus_1.commit.op_class_0::SimdSha1Hash2            0      0.00%     61.55% # Class of committed instruction
system.switch_cpus_1.commit.op_class_0::SimdSha256Hash            0      0.00%     61.55% # Class of committed instruction
system.switch_cpus_1.commit.op_class_0::SimdSha256Hash2            0      0.00%     61.55% # Class of committed instruction
system.switch_cpus_1.commit.op_class_0::SimdShaSigma2            0      0.00%     61.55% # Class of committed instruction
system.switch_cpus_1.commit.op_class_0::SimdShaSigma3            0      0.00%     61.55% # Class of committed instruction
system.switch_cpus_1.commit.op_class_0::SimdPredAlu            0      0.00%     61.55% # Class of committed instruction
system.switch_cpus_1.commit.op_class_0::MemRead    302738939     28.29%     89.84% # Class of committed instruction
system.switch_cpus_1.commit.op_class_0::MemWrite    108135284     10.11%     99.94% # Class of committed instruction
system.switch_cpus_1.commit.op_class_0::FloatMemRead       588478      0.05%    100.00% # Class of committed instruction
system.switch_cpus_1.commit.op_class_0::FloatMemWrite         1833      0.00%    100.00% # Class of committed instruction
system.switch_cpus_1.commit.op_class_0::IprAccess            0      0.00%    100.00% # Class of committed instruction
system.switch_cpus_1.commit.op_class_0::InstPrefetch            0      0.00%    100.00% # Class of committed instruction
system.switch_cpus_1.commit.op_class_0::total   1070022150                       # Class of committed instruction
system.switch_cpus_1.commit.refs            411464534                       # Number of memory references committed
system.switch_cpus_1.commit.swp_count               0                       # Number of s/w prefetches committed
system.switch_cpus_1.commit.vec_insts               0                       # Number of committed Vector instructions.
system.switch_cpus_1.committedInsts         706665642                       # Number of Instructions Simulated
system.switch_cpus_1.committedOps          1070022150                       # Number of Ops (including micro ops) Simulated
system.switch_cpus_1.cpi                     0.507593                       # CPI: Cycles Per Instruction
system.switch_cpus_1.cpi_total               0.507593                       # CPI: Total CPI of All Threads
system.switch_cpus_1.decode.BlockedCycles    203162058                       # Number of cycles decode is blocked
system.switch_cpus_1.decode.DecodedInsts   1082928264                       # Number of instructions handled by decode
system.switch_cpus_1.decode.IdleCycles       19589072                       # Number of cycles decode is idle
system.switch_cpus_1.decode.RunCycles        95368923                       # Number of cycles decode is running
system.switch_cpus_1.decode.SquashCycles       200961                       # Number of cycles decode is squashing
system.switch_cpus_1.decode.UnblockCycles     40376800                       # Number of cycles decode is unblocking
system.switch_cpus_1.dtb.rdAccesses         304753578                       # TLB accesses on read requests
system.switch_cpus_1.dtb.rdMisses                3403                       # TLB misses on read requests
system.switch_cpus_1.dtb.wrAccesses         108306854                       # TLB accesses on write requests
system.switch_cpus_1.dtb.wrMisses               32612                       # TLB misses on write requests
system.switch_cpus_1.fetch.Branches          35691230                       # Number of branches that fetch encountered
system.switch_cpus_1.fetch.CacheLines        55327295                       # Number of cache lines fetched
system.switch_cpus_1.fetch.Cycles           358402514                       # Number of cycles fetch has run and was not squashing or blocked
system.switch_cpus_1.fetch.IcacheSquashes           69                       # Number of outstanding Icache misses that were squashed
system.switch_cpus_1.fetch.IcacheWaitRetryStallCycles           49                       # Number of stall cycles due to full MSHR
system.switch_cpus_1.fetch.Insts            717297531                       # Number of instructions fetch has processed
system.switch_cpus_1.fetch.MiscStallCycles           60                       # Number of cycles fetch has spent waiting on interrupts, or bad addresses, or out of MSHRs
system.switch_cpus_1.fetch.PendingQuiesceStallCycles            5                       # Number of stall cycles due to pending quiesce instructions
system.switch_cpus_1.fetch.PendingTrapStallCycles           48                       # Number of stall cycles due to pending traps
system.switch_cpus_1.fetch.SquashCycles        401922                       # Number of cycles fetch has spent squashing
system.switch_cpus_1.fetch.branchRate        0.099502                       # Number of branch fetches per cycle
system.switch_cpus_1.fetch.icacheStallCycles        94190                       # Number of cycles fetch is stalled on an Icache miss
system.switch_cpus_1.fetch.predictedBranches     23346925                       # Number of branches that fetch has predicted taken
system.switch_cpus_1.fetch.rate              1.999723                       # Number of inst fetches per cycle
system.switch_cpus_1.fetch.rateDist::samples    358697827                       # Number of instructions fetched each cycle (Total)
system.switch_cpus_1.fetch.rateDist::mean     3.034323                       # Number of instructions fetched each cycle (Total)
system.switch_cpus_1.fetch.rateDist::stdev     3.520043                       # Number of instructions fetched each cycle (Total)
system.switch_cpus_1.fetch.rateDist::underflows            0      0.00%      0.00% # Number of instructions fetched each cycle (Total)
system.switch_cpus_1.fetch.rateDist::0      181861179     50.70%     50.70% # Number of instructions fetched each cycle (Total)
system.switch_cpus_1.fetch.rateDist::1       13802137      3.85%     54.55% # Number of instructions fetched each cycle (Total)
system.switch_cpus_1.fetch.rateDist::2        4279437      1.19%     55.74% # Number of instructions fetched each cycle (Total)
system.switch_cpus_1.fetch.rateDist::3       14503156      4.04%     59.78% # Number of instructions fetched each cycle (Total)
system.switch_cpus_1.fetch.rateDist::4       24560782      6.85%     66.63% # Number of instructions fetched each cycle (Total)
system.switch_cpus_1.fetch.rateDist::5        4051534      1.13%     67.76% # Number of instructions fetched each cycle (Total)
system.switch_cpus_1.fetch.rateDist::6        3346666      0.93%     68.69% # Number of instructions fetched each cycle (Total)
system.switch_cpus_1.fetch.rateDist::7       14389691      4.01%     72.71% # Number of instructions fetched each cycle (Total)
system.switch_cpus_1.fetch.rateDist::8       97903245     27.29%    100.00% # Number of instructions fetched each cycle (Total)
system.switch_cpus_1.fetch.rateDist::overflows            0      0.00%    100.00% # Number of instructions fetched each cycle (Total)
system.switch_cpus_1.fetch.rateDist::min_value            0                       # Number of instructions fetched each cycle (Total)
system.switch_cpus_1.fetch.rateDist::max_value            8                       # Number of instructions fetched each cycle (Total)
system.switch_cpus_1.fetch.rateDist::total    358697827                       # Number of instructions fetched each cycle (Total)
system.switch_cpus_1.fp_regfile_reads         5846302                       # number of floating regfile reads
system.switch_cpus_1.fp_regfile_writes        2971794                       # number of floating regfile writes
system.switch_cpus_1.idleCycles                   599                       # Total number of cycles that the CPU has spent unscheduled due to idling
system.switch_cpus_1.iew.branchMispredicts       239486                       # Number of branch mispredicts detected at execute
system.switch_cpus_1.iew.exec_branches       34379363                       # Number of branches executed
system.switch_cpus_1.iew.exec_nop                   0                       # number of nop insts executed
system.switch_cpus_1.iew.exec_rate           2.999647                       # Inst execution rate
system.switch_cpus_1.iew.exec_refs          413152262                       # number of memory reference insts executed
system.switch_cpus_1.iew.exec_stores        108306760                       # Number of stores executed
system.switch_cpus_1.iew.exec_swp                   0                       # number of swp insts executed
system.switch_cpus_1.iew.iewBlockCycles       1275327                       # Number of cycles IEW is blocking
system.switch_cpus_1.iew.iewDispLoadInsts    305104140                       # Number of dispatched load instructions
system.switch_cpus_1.iew.iewDispNonSpecInsts            3                       # Number of dispatched non-speculative instructions
system.switch_cpus_1.iew.iewDispSquashedInsts         5804                       # Number of squashed instructions skipped by dispatch
system.switch_cpus_1.iew.iewDispStoreInsts    108563298                       # Number of dispatched store instructions
system.switch_cpus_1.iew.iewDispatchedInsts   1079606297                       # Number of instructions dispatched to IQ
system.switch_cpus_1.iew.iewExecLoadInsts    304845502                       # Number of load instructions executed
system.switch_cpus_1.iew.iewExecSquashedInsts       430628                       # Number of squashed instructions skipped in execute
system.switch_cpus_1.iew.iewExecutedInsts   1075968697                       # Number of executed instructions
system.switch_cpus_1.iew.iewIQFullEvents        27128                       # Number of times the IQ has become full, causing a stall
system.switch_cpus_1.iew.iewIdleCycles              0                       # Number of cycles IEW is idle
system.switch_cpus_1.iew.iewLSQFullEvents     10792246                       # Number of times the LSQ has become full, causing a stall
system.switch_cpus_1.iew.iewSquashCycles       200961                       # Number of cycles IEW is squashing
system.switch_cpus_1.iew.iewUnblockCycles     10827549                       # Number of cycles IEW is unblocking
system.switch_cpus_1.iew.lsq.thread0.blockedLoads            0                       # Number of blocked loads due to partial load-store forwarding
system.switch_cpus_1.iew.lsq.thread0.cacheBlocked        30094                       # Number of times an access to memory failed due to the cache being blocked
system.switch_cpus_1.iew.lsq.thread0.forwLoads     19612556                       # Number of loads that had data forwarded from stores
system.switch_cpus_1.iew.lsq.thread0.ignoredResponses          626                       # Number of memory responses ignored because the instruction is squashed
system.switch_cpus_1.iew.lsq.thread0.invAddrLoads            0                       # Number of loads ignored due to an invalid address
system.switch_cpus_1.iew.lsq.thread0.invAddrSwpfs            0                       # Number of software prefetches ignored due to an invalid address
system.switch_cpus_1.iew.lsq.thread0.memOrderViolation         9912                       # Number of memory ordering violations
system.switch_cpus_1.iew.lsq.thread0.rescheduledLoads            0                       # Number of loads that were rescheduled
system.switch_cpus_1.iew.lsq.thread0.squashedLoads      1776702                       # Number of loads squashed
system.switch_cpus_1.iew.lsq.thread0.squashedStores       426174                       # Number of stores squashed
system.switch_cpus_1.iew.memOrderViolationEvents         9912                       # Number of memory order violations
system.switch_cpus_1.iew.predictedNotTakenIncorrect       157076                       # Number of branches that were predicted not taken incorrectly
system.switch_cpus_1.iew.predictedTakenIncorrect        82410                       # Number of branches that were predicted taken incorrectly
system.switch_cpus_1.iew.wb_consumers      1809886920                       # num instructions consuming a value
system.switch_cpus_1.iew.wb_count          1075564647                       # cumulative count of insts written-back
system.switch_cpus_1.iew.wb_fanout           0.500109                       # average fanout of values written-back
system.switch_cpus_1.iew.wb_producers       905141193                       # num instructions producing a value
system.switch_cpus_1.iew.wb_rate             2.998521                       # insts written-back per cycle
system.switch_cpus_1.iew.wb_sent           1075712119                       # cumulative count of insts sent to commit
system.switch_cpus_1.int_regfile_reads     2185318027                       # number of integer regfile reads
system.switch_cpus_1.int_regfile_writes     929790758                       # number of integer regfile writes
system.switch_cpus_1.ipc                     1.970083                       # IPC: Instructions Per Cycle
system.switch_cpus_1.ipc_total               1.970083                       # IPC: Total IPC of All Threads
system.switch_cpus_1.iq.FU_type_0::No_OpClass       165743      0.02%      0.02% # Type of FU issued
system.switch_cpus_1.iq.FU_type_0::IntAlu    660027898     61.32%     61.33% # Type of FU issued
system.switch_cpus_1.iq.FU_type_0::IntMult       294459      0.03%     61.36% # Type of FU issued
system.switch_cpus_1.iq.FU_type_0::IntDiv            0      0.00%     61.36% # Type of FU issued
system.switch_cpus_1.iq.FU_type_0::FloatAdd       141908      0.01%     61.37% # Type of FU issued
system.switch_cpus_1.iq.FU_type_0::FloatCmp            0      0.00%     61.37% # Type of FU issued
system.switch_cpus_1.iq.FU_type_0::FloatCvt          118      0.00%     61.37% # Type of FU issued
system.switch_cpus_1.iq.FU_type_0::FloatMult            0      0.00%     61.37% # Type of FU issued
system.switch_cpus_1.iq.FU_type_0::FloatMultAcc            0      0.00%     61.37% # Type of FU issued
system.switch_cpus_1.iq.FU_type_0::FloatDiv            0      0.00%     61.37% # Type of FU issued
system.switch_cpus_1.iq.FU_type_0::FloatMisc            0      0.00%     61.37% # Type of FU issued
system.switch_cpus_1.iq.FU_type_0::FloatSqrt            0      0.00%     61.37% # Type of FU issued
system.switch_cpus_1.iq.FU_type_0::SimdAdd            0      0.00%     61.37% # Type of FU issued
system.switch_cpus_1.iq.FU_type_0::SimdAddAcc            0      0.00%     61.37% # Type of FU issued
system.switch_cpus_1.iq.FU_type_0::SimdAlu       303036      0.03%     61.40% # Type of FU issued
system.switch_cpus_1.iq.FU_type_0::SimdCmp            0      0.00%     61.40% # Type of FU issued
system.switch_cpus_1.iq.FU_type_0::SimdCvt       228276      0.02%     61.42% # Type of FU issued
system.switch_cpus_1.iq.FU_type_0::SimdMisc       460009      0.04%     61.47% # Type of FU issued
system.switch_cpus_1.iq.FU_type_0::SimdMult            0      0.00%     61.47% # Type of FU issued
system.switch_cpus_1.iq.FU_type_0::SimdMultAcc            0      0.00%     61.47% # Type of FU issued
system.switch_cpus_1.iq.FU_type_0::SimdShift            0      0.00%     61.47% # Type of FU issued
system.switch_cpus_1.iq.FU_type_0::SimdShiftAcc            0      0.00%     61.47% # Type of FU issued
system.switch_cpus_1.iq.FU_type_0::SimdDiv            0      0.00%     61.47% # Type of FU issued
system.switch_cpus_1.iq.FU_type_0::SimdSqrt            0      0.00%     61.47% # Type of FU issued
system.switch_cpus_1.iq.FU_type_0::SimdFloatAdd       582243      0.05%     61.52% # Type of FU issued
system.switch_cpus_1.iq.FU_type_0::SimdFloatAlu            0      0.00%     61.52% # Type of FU issued
system.switch_cpus_1.iq.FU_type_0::SimdFloatCmp          192      0.00%     61.52% # Type of FU issued
system.switch_cpus_1.iq.FU_type_0::SimdFloatCvt       665402      0.06%     61.58% # Type of FU issued
system.switch_cpus_1.iq.FU_type_0::SimdFloatDiv        95066      0.01%     61.59% # Type of FU issued
system.switch_cpus_1.iq.FU_type_0::SimdFloatMisc            0      0.00%     61.59% # Type of FU issued
system.switch_cpus_1.iq.FU_type_0::SimdFloatMult        44201      0.00%     61.60% # Type of FU issued
system.switch_cpus_1.iq.FU_type_0::SimdFloatMultAcc            0      0.00%     61.60% # Type of FU issued
system.switch_cpus_1.iq.FU_type_0::SimdFloatSqrt            0      0.00%     61.60% # Type of FU issued
system.switch_cpus_1.iq.FU_type_0::SimdReduceAdd            0      0.00%     61.60% # Type of FU issued
system.switch_cpus_1.iq.FU_type_0::SimdReduceAlu            0      0.00%     61.60% # Type of FU issued
system.switch_cpus_1.iq.FU_type_0::SimdReduceCmp            0      0.00%     61.60% # Type of FU issued
system.switch_cpus_1.iq.FU_type_0::SimdFloatReduceAdd            0      0.00%     61.60% # Type of FU issued
system.switch_cpus_1.iq.FU_type_0::SimdFloatReduceCmp            0      0.00%     61.60% # Type of FU issued
system.switch_cpus_1.iq.FU_type_0::SimdAes            0      0.00%     61.60% # Type of FU issued
system.switch_cpus_1.iq.FU_type_0::SimdAesMix            0      0.00%     61.60% # Type of FU issued
system.switch_cpus_1.iq.FU_type_0::SimdSha1Hash            0      0.00%     61.60% # Type of FU issued
system.switch_cpus_1.iq.FU_type_0::SimdSha1Hash2            0      0.00%     61.60% # Type of FU issued
system.switch_cpus_1.iq.FU_type_0::SimdSha256Hash            0      0.00%     61.60% # Type of FU issued
system.switch_cpus_1.iq.FU_type_0::SimdSha256Hash2            0      0.00%     61.60% # Type of FU issued
system.switch_cpus_1.iq.FU_type_0::SimdShaSigma2            0      0.00%     61.60% # Type of FU issued
system.switch_cpus_1.iq.FU_type_0::SimdShaSigma3            0      0.00%     61.60% # Type of FU issued
system.switch_cpus_1.iq.FU_type_0::SimdPredAlu            0      0.00%     61.60% # Type of FU issued
system.switch_cpus_1.iq.FU_type_0::MemRead    304176768     28.26%     89.85% # Type of FU issued
system.switch_cpus_1.iq.FU_type_0::MemWrite    108327317     10.06%     99.92% # Type of FU issued
system.switch_cpus_1.iq.FU_type_0::FloatMemRead       883731      0.08%    100.00% # Type of FU issued
system.switch_cpus_1.iq.FU_type_0::FloatMemWrite         2961      0.00%    100.00% # Type of FU issued
system.switch_cpus_1.iq.FU_type_0::IprAccess            0      0.00%    100.00% # Type of FU issued
system.switch_cpus_1.iq.FU_type_0::InstPrefetch            0      0.00%    100.00% # Type of FU issued
system.switch_cpus_1.iq.FU_type_0::total   1076399328                       # Type of FU issued
system.switch_cpus_1.iq.fp_alu_accesses       3623984                       # Number of floating point alu accesses
system.switch_cpus_1.iq.fp_inst_queue_reads      7223214                       # Number of floating instruction queue reads
system.switch_cpus_1.iq.fp_inst_queue_wakeup_accesses      3539327                       # Number of floating instruction queue wakeup accesses
system.switch_cpus_1.iq.fp_inst_queue_writes      5174497                       # Number of floating instruction queue writes
system.switch_cpus_1.iq.fu_busy_cnt           6134344                       # FU busy when requested
system.switch_cpus_1.iq.fu_busy_rate         0.005699                       # FU busy rate (busy events/executed inst)
system.switch_cpus_1.iq.fu_full::No_OpClass            0      0.00%      0.00% # attempts to use FU when none available
system.switch_cpus_1.iq.fu_full::IntAlu        486000      7.92%      7.92% # attempts to use FU when none available
system.switch_cpus_1.iq.fu_full::IntMult            0      0.00%      7.92% # attempts to use FU when none available
system.switch_cpus_1.iq.fu_full::IntDiv             0      0.00%      7.92% # attempts to use FU when none available
system.switch_cpus_1.iq.fu_full::FloatAdd            0      0.00%      7.92% # attempts to use FU when none available
system.switch_cpus_1.iq.fu_full::FloatCmp            0      0.00%      7.92% # attempts to use FU when none available
system.switch_cpus_1.iq.fu_full::FloatCvt            0      0.00%      7.92% # attempts to use FU when none available
system.switch_cpus_1.iq.fu_full::FloatMult            0      0.00%      7.92% # attempts to use FU when none available
system.switch_cpus_1.iq.fu_full::FloatMultAcc            0      0.00%      7.92% # attempts to use FU when none available
system.switch_cpus_1.iq.fu_full::FloatDiv            0      0.00%      7.92% # attempts to use FU when none available
system.switch_cpus_1.iq.fu_full::FloatMisc            0      0.00%      7.92% # attempts to use FU when none available
system.switch_cpus_1.iq.fu_full::FloatSqrt            0      0.00%      7.92% # attempts to use FU when none available
system.switch_cpus_1.iq.fu_full::SimdAdd            0      0.00%      7.92% # attempts to use FU when none available
system.switch_cpus_1.iq.fu_full::SimdAddAcc            0      0.00%      7.92% # attempts to use FU when none available
system.switch_cpus_1.iq.fu_full::SimdAlu          518      0.01%      7.93% # attempts to use FU when none available
system.switch_cpus_1.iq.fu_full::SimdCmp            0      0.00%      7.93% # attempts to use FU when none available
system.switch_cpus_1.iq.fu_full::SimdCvt         5159      0.08%      8.02% # attempts to use FU when none available
system.switch_cpus_1.iq.fu_full::SimdMisc            6      0.00%      8.02% # attempts to use FU when none available
system.switch_cpus_1.iq.fu_full::SimdMult            0      0.00%      8.02% # attempts to use FU when none available
system.switch_cpus_1.iq.fu_full::SimdMultAcc            0      0.00%      8.02% # attempts to use FU when none available
system.switch_cpus_1.iq.fu_full::SimdShift            0      0.00%      8.02% # attempts to use FU when none available
system.switch_cpus_1.iq.fu_full::SimdShiftAcc            0      0.00%      8.02% # attempts to use FU when none available
system.switch_cpus_1.iq.fu_full::SimdDiv            0      0.00%      8.02% # attempts to use FU when none available
system.switch_cpus_1.iq.fu_full::SimdSqrt            0      0.00%      8.02% # attempts to use FU when none available
system.switch_cpus_1.iq.fu_full::SimdFloatAdd          970      0.02%      8.03% # attempts to use FU when none available
system.switch_cpus_1.iq.fu_full::SimdFloatAlu            0      0.00%      8.03% # attempts to use FU when none available
system.switch_cpus_1.iq.fu_full::SimdFloatCmp            0      0.00%      8.03% # attempts to use FU when none available
system.switch_cpus_1.iq.fu_full::SimdFloatCvt        18094      0.29%      8.33% # attempts to use FU when none available
system.switch_cpus_1.iq.fu_full::SimdFloatDiv            0      0.00%      8.33% # attempts to use FU when none available
system.switch_cpus_1.iq.fu_full::SimdFloatMisc            0      0.00%      8.33% # attempts to use FU when none available
system.switch_cpus_1.iq.fu_full::SimdFloatMult            1      0.00%      8.33% # attempts to use FU when none available
system.switch_cpus_1.iq.fu_full::SimdFloatMultAcc            0      0.00%      8.33% # attempts to use FU when none available
system.switch_cpus_1.iq.fu_full::SimdFloatSqrt            0      0.00%      8.33% # attempts to use FU when none available
system.switch_cpus_1.iq.fu_full::SimdReduceAdd            0      0.00%      8.33% # attempts to use FU when none available
system.switch_cpus_1.iq.fu_full::SimdReduceAlu            0      0.00%      8.33% # attempts to use FU when none available
system.switch_cpus_1.iq.fu_full::SimdReduceCmp            0      0.00%      8.33% # attempts to use FU when none available
system.switch_cpus_1.iq.fu_full::SimdFloatReduceAdd            0      0.00%      8.33% # attempts to use FU when none available
system.switch_cpus_1.iq.fu_full::SimdFloatReduceCmp            0      0.00%      8.33% # attempts to use FU when none available
system.switch_cpus_1.iq.fu_full::SimdAes            0      0.00%      8.33% # attempts to use FU when none available
system.switch_cpus_1.iq.fu_full::SimdAesMix            0      0.00%      8.33% # attempts to use FU when none available
system.switch_cpus_1.iq.fu_full::SimdSha1Hash            0      0.00%      8.33% # attempts to use FU when none available
system.switch_cpus_1.iq.fu_full::SimdSha1Hash2            0      0.00%      8.33% # attempts to use FU when none available
system.switch_cpus_1.iq.fu_full::SimdSha256Hash            0      0.00%      8.33% # attempts to use FU when none available
system.switch_cpus_1.iq.fu_full::SimdSha256Hash2            0      0.00%      8.33% # attempts to use FU when none available
system.switch_cpus_1.iq.fu_full::SimdShaSigma2            0      0.00%      8.33% # attempts to use FU when none available
system.switch_cpus_1.iq.fu_full::SimdShaSigma3            0      0.00%      8.33% # attempts to use FU when none available
system.switch_cpus_1.iq.fu_full::SimdPredAlu            0      0.00%      8.33% # attempts to use FU when none available
system.switch_cpus_1.iq.fu_full::MemRead      5614820     91.53%     99.86% # attempts to use FU when none available
system.switch_cpus_1.iq.fu_full::MemWrite         7786      0.13%     99.98% # attempts to use FU when none available
system.switch_cpus_1.iq.fu_full::FloatMemRead          990      0.02%    100.00% # attempts to use FU when none available
system.switch_cpus_1.iq.fu_full::FloatMemWrite            0      0.00%    100.00% # attempts to use FU when none available
system.switch_cpus_1.iq.fu_full::IprAccess            0      0.00%    100.00% # attempts to use FU when none available
system.switch_cpus_1.iq.fu_full::InstPrefetch            0      0.00%    100.00% # attempts to use FU when none available
system.switch_cpus_1.iq.int_alu_accesses   1078743945                       # Number of integer alu accesses
system.switch_cpus_1.iq.int_inst_queue_reads   2510602849                       # Number of integer instruction queue reads
system.switch_cpus_1.iq.int_inst_queue_wakeup_accesses   1072025320                       # Number of integer instruction queue wakeup accesses
system.switch_cpus_1.iq.int_inst_queue_writes   1084025650                       # Number of integer instruction queue writes
system.switch_cpus_1.iq.iqInstsAdded       1079606288                       # Number of instructions added to the IQ (excludes non-spec)
system.switch_cpus_1.iq.iqInstsIssued      1076399328                       # Number of instructions issued
system.switch_cpus_1.iq.iqNonSpecInstsAdded            9                       # Number of non-speculative instructions added to the IQ
system.switch_cpus_1.iq.iqSquashedInstsExamined      9584079                       # Number of squashed instructions iterated over during squash; mainly for profiling
system.switch_cpus_1.iq.iqSquashedInstsIssued       195239                       # Number of squashed instructions issued
system.switch_cpus_1.iq.iqSquashedNonSpecRemoved            9                       # Number of squashed non-spec instructions that were removed
system.switch_cpus_1.iq.iqSquashedOperandsExamined     15200239                       # Number of squashed operands that are examined and possibly removed from graph
system.switch_cpus_1.iq.issued_per_cycle::samples    358697827                       # Number of insts issued each cycle
system.switch_cpus_1.iq.issued_per_cycle::mean     3.000853                       # Number of insts issued each cycle
system.switch_cpus_1.iq.issued_per_cycle::stdev     2.363894                       # Number of insts issued each cycle
system.switch_cpus_1.iq.issued_per_cycle::underflows            0      0.00%      0.00% # Number of insts issued each cycle
system.switch_cpus_1.iq.issued_per_cycle::0     97745522     27.25%     27.25% # Number of insts issued each cycle
system.switch_cpus_1.iq.issued_per_cycle::1     13918951      3.88%     31.13% # Number of insts issued each cycle
system.switch_cpus_1.iq.issued_per_cycle::2     36418999     10.15%     41.28% # Number of insts issued each cycle
system.switch_cpus_1.iq.issued_per_cycle::3     52983920     14.77%     56.05% # Number of insts issued each cycle
system.switch_cpus_1.iq.issued_per_cycle::4     50055682     13.95%     70.01% # Number of insts issued each cycle
system.switch_cpus_1.iq.issued_per_cycle::5     50712211     14.14%     84.15% # Number of insts issued each cycle
system.switch_cpus_1.iq.issued_per_cycle::6     30035760      8.37%     92.52% # Number of insts issued each cycle
system.switch_cpus_1.iq.issued_per_cycle::7     17921980      5.00%     97.52% # Number of insts issued each cycle
system.switch_cpus_1.iq.issued_per_cycle::8      8904802      2.48%    100.00% # Number of insts issued each cycle
system.switch_cpus_1.iq.issued_per_cycle::overflows            0      0.00%    100.00% # Number of insts issued each cycle
system.switch_cpus_1.iq.issued_per_cycle::min_value            0                       # Number of insts issued each cycle
system.switch_cpus_1.iq.issued_per_cycle::max_value            8                       # Number of insts issued each cycle
system.switch_cpus_1.iq.issued_per_cycle::total    358697827                       # Number of insts issued each cycle
system.switch_cpus_1.iq.rate                 3.000848                       # Inst issue rate
system.switch_cpus_1.iq.vec_alu_accesses            0                       # Number of vector alu accesses
system.switch_cpus_1.iq.vec_inst_queue_reads            0                       # Number of vector instruction queue reads
system.switch_cpus_1.iq.vec_inst_queue_wakeup_accesses            0                       # Number of vector instruction queue wakeup accesses
system.switch_cpus_1.iq.vec_inst_queue_writes            0                       # Number of vector instruction queue writes
system.switch_cpus_1.itb.rdAccesses                 0                       # TLB accesses on read requests
system.switch_cpus_1.itb.rdMisses                   0                       # TLB misses on read requests
system.switch_cpus_1.itb.wrAccesses          55327304                       # TLB accesses on write requests
system.switch_cpus_1.itb.wrMisses                  28                       # TLB misses on write requests
system.switch_cpus_1.memDep0.conflictingLoads     18057143                       # Number of conflicting loads.
system.switch_cpus_1.memDep0.conflictingStores     27131881                       # Number of conflicting stores.
system.switch_cpus_1.memDep0.insertedLoads    305104140                       # Number of loads inserted to the mem dependence unit.
system.switch_cpus_1.memDep0.insertedStores    108563298                       # Number of stores inserted to the mem dependence unit.
system.switch_cpus_1.misc_regfile_reads     482530800                       # number of misc regfile reads
system.switch_cpus_1.numCycles              358698426                       # number of cpu cycles simulated
system.switch_cpus_1.numWorkItemsCompleted            0                       # number of work items this cpu completed
system.switch_cpus_1.numWorkItemsStarted            0                       # number of work items this cpu started
system.switch_cpus_1.rename.BlockCycles      16934403                       # Number of cycles rename is blocking
system.switch_cpus_1.rename.CommittedMaps   1490798829                       # Number of HB maps that are committed
system.switch_cpus_1.rename.IQFullEvents      2648740                       # Number of times rename has blocked due to IQ full
system.switch_cpus_1.rename.IdleCycles       34567593                       # Number of cycles rename is idle
system.switch_cpus_1.rename.LQFullEvents     62805761                       # Number of times rename has blocked due to LQ full
system.switch_cpus_1.rename.ROBFullEvents      6477211                       # Number of times rename has blocked due to ROB full
system.switch_cpus_1.rename.RenameLookups   3829581359                       # Number of register rename lookups that rename has made
system.switch_cpus_1.rename.RenamedInsts   1081635478                       # Number of instructions processed by rename
system.switch_cpus_1.rename.RenamedOperands   1506059840                       # Number of destination operands rename has renamed
system.switch_cpus_1.rename.RunCycles       120122067                       # Number of cycles rename is running
system.switch_cpus_1.rename.SQFullEvents    105755000                       # Number of times rename has blocked due to SQ full
system.switch_cpus_1.rename.SquashCycles       200961                       # Number of cycles rename is squashing
system.switch_cpus_1.rename.UnblockCycles    186872791                       # Number of cycles rename is unblocking
system.switch_cpus_1.rename.UndoneMaps       15260894                       # Number of HB maps that are undone due to squashing
system.switch_cpus_1.rename.fp_rename_lookups      6957629                       # Number of floating rename lookups
system.switch_cpus_1.rename.int_rename_lookups   2194827020                       # Number of integer rename lookups
system.switch_cpus_1.rename.serializeStallCycles            0                       # count of cycles rename stalled for serializing inst
system.switch_cpus_1.rename.serializingInsts            0                       # count of serializing insts renamed
system.switch_cpus_1.rename.skidInsts       209681389                       # count of insts added to the skid buffer
system.switch_cpus_1.rename.tempSerializingInsts            0                       # count of temporary serializing insts renamed
system.switch_cpus_1.rob.rob_reads         1349549048                       # The number of ROB reads
system.switch_cpus_1.rob.rob_writes        2160621193                       # The number of ROB writes
system.switch_cpus_1.timesIdled                    15                       # Number of times that the entire CPU went into an idle state and unscheduled itself
system.tol2bus.snoop_filter.hit_multi_requests          239                       # Number of requests hitting in the snoop filter with multiple (>1) holders of the requested data.
system.tol2bus.snoop_filter.hit_multi_snoops            0                       # Number of snoops hitting in the snoop filter with multiple (>1) holders of the requested data.
system.tol2bus.snoop_filter.hit_single_requests      4571104                       # Number of requests hitting in the snoop filter with a single holder of the requested data.
system.tol2bus.snoop_filter.hit_single_snoops        20277                       # Number of snoops hitting in the snoop filter with a single holder of the requested data.
system.tol2bus.snoop_filter.tot_requests      9139781                       # Total number of requests made to the snoop filter.
system.tol2bus.snoop_filter.tot_snoops          20277                       # Total number of snoops made to the snoop filter.
system.tol3bus.snoop_filter.hit_multi_requests            0                       # Number of requests hitting in the snoop filter with multiple (>1) holders of the requested data.
system.tol3bus.snoop_filter.hit_multi_snoops            0                       # Number of snoops hitting in the snoop filter with multiple (>1) holders of the requested data.
system.tol3bus.snoop_filter.hit_single_requests      2140701                       # Number of requests hitting in the snoop filter with a single holder of the requested data.
system.tol3bus.snoop_filter.hit_single_snoops        35358                       # Number of snoops hitting in the snoop filter with a single holder of the requested data.
system.tol3bus.snoop_filter.tot_requests      4281227                       # Total number of requests made to the snoop filter.
system.tol3bus.snoop_filter.tot_snoops          35358                       # Total number of snoops made to the snoop filter.
system.membus.trans_dist::ReadResp               5967                       # Transaction distribution
system.membus.trans_dist::WritebackDirty       284500                       # Transaction distribution
system.membus.trans_dist::CleanEvict             5399                       # Transaction distribution
system.membus.trans_dist::ReadExReq            283929                       # Transaction distribution
system.membus.trans_dist::ReadExResp           283929                       # Transaction distribution
system.membus.trans_dist::ReadSharedReq          5967                       # Transaction distribution
system.membus.pkt_count_system.l3.mem_side::system.mem_ctrls.port       869691                       # Packet count per connected master and slave (bytes)
system.membus.pkt_count_system.l3.mem_side::total       869691                       # Packet count per connected master and slave (bytes)
system.membus.pkt_count::total                 869691                       # Packet count per connected master and slave (bytes)
system.membus.pkt_size_system.l3.mem_side::system.mem_ctrls.port     36761344                       # Cumulative packet size per connected master and slave (bytes)
system.membus.pkt_size_system.l3.mem_side::total     36761344                       # Cumulative packet size per connected master and slave (bytes)
system.membus.pkt_size::total                36761344                       # Cumulative packet size per connected master and slave (bytes)
system.membus.snoops                                0                       # Total snoops (count)
system.membus.snoopTraffic                          0                       # Total snoop traffic (bytes)
system.membus.snoop_fanout::samples            289896                       # Request fanout histogram
system.membus.snoop_fanout::mean                    0                       # Request fanout histogram
system.membus.snoop_fanout::stdev                   0                       # Request fanout histogram
system.membus.snoop_fanout::underflows              0      0.00%      0.00% # Request fanout histogram
system.membus.snoop_fanout::0                  289896    100.00%    100.00% # Request fanout histogram
system.membus.snoop_fanout::1                       0      0.00%    100.00% # Request fanout histogram
system.membus.snoop_fanout::overflows               0      0.00%    100.00% # Request fanout histogram
system.membus.snoop_fanout::min_value               0                       # Request fanout histogram
system.membus.snoop_fanout::max_value               0                       # Request fanout histogram
system.membus.snoop_fanout::total              289896                       # Request fanout histogram
system.membus.reqLayer2.occupancy          1767146000                       # Layer occupancy (ticks)
system.membus.reqLayer2.utilization               1.0                       # Layer utilization (%)
system.membus.respLayer1.occupancy         1570741000                       # Layer occupancy (ticks)
system.membus.respLayer1.utilization              0.9                       # Layer utilization (%)
system.membus.power_state.pwrStateResidencyTicks::UNDEFINED 1242976914500                       # Cumulative time (in ticks) in various power states
system.switch_cpus_1.dtb.walker.power_state.pwrStateResidencyTicks::UNDEFINED 1242976914500                       # Cumulative time (in ticks) in various power states
system.switch_cpus_1.itb.walker.power_state.pwrStateResidencyTicks::UNDEFINED 1242976914500                       # Cumulative time (in ticks) in various power states
system.switch_cpus_1.power_state.pwrStateResidencyTicks::OFF 1242976914500                       # Cumulative time (in ticks) in various power states
system.switch_cpus.dtb.walker.power_state.pwrStateResidencyTicks::UNDEFINED 1242976914500                       # Cumulative time (in ticks) in various power states
system.switch_cpus.itb.walker.power_state.pwrStateResidencyTicks::UNDEFINED 1242976914500                       # Cumulative time (in ticks) in various power states
system.switch_cpus.power_state.numTransitions            1                       # Number of power state transitions
system.switch_cpus.power_state.pwrStateResidencyTicks::OFF 1242976914500                       # Cumulative time (in ticks) in various power states
system.tol2bus.trans_dist::ReadResp           2525688                       # Transaction distribution
system.tol2bus.trans_dist::WritebackDirty      5947207                       # Transaction distribution
system.tol2bus.trans_dist::WritebackClean           58                       # Transaction distribution
system.tol2bus.trans_dist::CleanEvict          803365                       # Transaction distribution
system.tol2bus.trans_dist::UpgradeReq            2427                       # Transaction distribution
system.tol2bus.trans_dist::UpgradeResp           2427                       # Transaction distribution
system.tol2bus.trans_dist::ReadExReq          2042989                       # Transaction distribution
system.tol2bus.trans_dist::ReadExResp         2042989                       # Transaction distribution
system.tol2bus.trans_dist::ReadCleanReq            58                       # Transaction distribution
system.tol2bus.trans_dist::ReadSharedReq      2525630                       # Transaction distribution
system.tol2bus.pkt_count_system.cpu.icache.mem_side::system.l2.cpu_side          174                       # Packet count per connected master and slave (bytes)
system.tol2bus.pkt_count_system.cpu.dcache.mem_side::system.l2.cpu_side     13710711                       # Packet count per connected master and slave (bytes)
system.tol2bus.pkt_count::total              13710885                       # Packet count per connected master and slave (bytes)
system.tol2bus.pkt_size_system.cpu.icache.mem_side::system.l2.cpu_side         7424                       # Cumulative packet size per connected master and slave (bytes)
system.tol2bus.pkt_size_system.cpu.dcache.mem_side::system.l2.cpu_side    540888064                       # Cumulative packet size per connected master and slave (bytes)
system.tol2bus.pkt_size::total              540895488                       # Cumulative packet size per connected master and slave (bytes)
system.tol2bus.snoops                         2181953                       # Total snoops (count)
system.tol2bus.snoopTraffic                 132124800                       # Total snoop traffic (bytes)
system.tol2bus.snoop_fanout::samples          6753057                       # Request fanout histogram
system.tol2bus.snoop_fanout::mean            0.003038                       # Request fanout histogram
system.tol2bus.snoop_fanout::stdev           0.055035                       # Request fanout histogram
system.tol2bus.snoop_fanout::underflows             0      0.00%      0.00% # Request fanout histogram
system.tol2bus.snoop_fanout::0                6732541     99.70%     99.70% # Request fanout histogram
system.tol2bus.snoop_fanout::1                  20516      0.30%    100.00% # Request fanout histogram
system.tol2bus.snoop_fanout::2                      0      0.00%    100.00% # Request fanout histogram
system.tol2bus.snoop_fanout::3                      0      0.00%    100.00% # Request fanout histogram
system.tol2bus.snoop_fanout::4                      0      0.00%    100.00% # Request fanout histogram
system.tol2bus.snoop_fanout::overflows              0      0.00%    100.00% # Request fanout histogram
system.tol2bus.snoop_fanout::min_value              0                       # Request fanout histogram
system.tol2bus.snoop_fanout::max_value              1                       # Request fanout histogram
system.tol2bus.snoop_fanout::total            6753057                       # Request fanout histogram
system.tol2bus.reqLayer0.occupancy         8452705500                       # Layer occupancy (ticks)
system.tol2bus.reqLayer0.utilization              4.7                       # Layer utilization (%)
system.tol2bus.respLayer1.occupancy        6854142000                       # Layer occupancy (ticks)
system.tol2bus.respLayer1.utilization             3.8                       # Layer utilization (%)
system.tol2bus.respLayer0.occupancy             87499                       # Layer occupancy (ticks)
system.tol2bus.respLayer0.utilization             0.0                       # Layer utilization (%)
system.tol2bus.power_state.pwrStateResidencyTicks::UNDEFINED 1242976914500                       # Cumulative time (in ticks) in various power states
system.voltage_domain.voltage                       1                       # Voltage in Volts
system.clk_domain.clock                          1000                       # Clock period in ticks
system.l2.demand_hits::.switch_cpus_1.inst            1                       # number of demand (read+write) hits
system.l2.demand_hits::.switch_cpus_1.data      2428020                       # number of demand (read+write) hits
system.l2.demand_hits::total                  2428021                       # number of demand (read+write) hits
system.l2.overall_hits::.switch_cpus_1.inst            1                       # number of overall hits
system.l2.overall_hits::.switch_cpus_1.data      2428020                       # number of overall hits
system.l2.overall_hits::total                 2428021                       # number of overall hits
system.l2.demand_misses::.switch_cpus_1.inst           57                       # number of demand (read+write) misses
system.l2.demand_misses::.switch_cpus_1.data      2140599                       # number of demand (read+write) misses
system.l2.demand_misses::total                2140656                       # number of demand (read+write) misses
system.l2.overall_misses::.switch_cpus_1.inst           57                       # number of overall misses
system.l2.overall_misses::.switch_cpus_1.data      2140599                       # number of overall misses
system.l2.overall_misses::total               2140656                       # number of overall misses
system.l2.demand_miss_latency::.switch_cpus_1.inst      5588000                       # number of demand (read+write) miss cycles
system.l2.demand_miss_latency::.switch_cpus_1.data  68452603500                       # number of demand (read+write) miss cycles
system.l2.demand_miss_latency::total      68458191500                       # number of demand (read+write) miss cycles
system.l2.overall_miss_latency::.switch_cpus_1.inst      5588000                       # number of overall miss cycles
system.l2.overall_miss_latency::.switch_cpus_1.data  68452603500                       # number of overall miss cycles
system.l2.overall_miss_latency::total     68458191500                       # number of overall miss cycles
system.l2.demand_accesses::.switch_cpus_1.inst           58                       # number of demand (read+write) accesses
system.l2.demand_accesses::.switch_cpus_1.data      4568619                       # number of demand (read+write) accesses
system.l2.demand_accesses::total              4568677                       # number of demand (read+write) accesses
system.l2.overall_accesses::.switch_cpus_1.inst           58                       # number of overall (read+write) accesses
system.l2.overall_accesses::.switch_cpus_1.data      4568619                       # number of overall (read+write) accesses
system.l2.overall_accesses::total             4568677                       # number of overall (read+write) accesses
system.l2.demand_miss_rate::.switch_cpus_1.inst     0.982759                       # miss rate for demand accesses
system.l2.demand_miss_rate::.switch_cpus_1.data     0.468544                       # miss rate for demand accesses
[...]
system.cpu.dcache.overall_accesses::.switch_cpus_1.data    393276908                       # number of overall (read+write) accesses
system.cpu.dcache.overall_accesses::total   1031100477                       # number of overall (read+write) accesses
system.cpu.dcache.demand_miss_rate::.cpu.data     0.011307                       # miss rate for demand accesses
system.cpu.dcache.demand_miss_rate::.switch_cpus.data     0.010975                       # miss rate for demand accesses
system.cpu.dcache.demand_miss_rate::.switch_cpus_1.data     0.013370                       # miss rate for demand accesses
system.cpu.dcache.demand_miss_rate::total     0.012075                       # miss rate for demand accesses
system.cpu.dcache.overall_miss_rate::.cpu.data     0.011310                       # miss rate for overall accesses
system.cpu.dcache.overall_miss_rate::.switch_cpus.data     0.010975                       # miss rate for overall accesses
system.cpu.dcache.overall_miss_rate::.switch_cpus_1.data     0.013370                       # miss rate for overall accesses
system.cpu.dcache.overall_miss_rate::total     0.012076                       # miss rate for overall accesses
system.cpu.dcache.demand_avg_miss_latency::.switch_cpus.data 18993.199827                       # average overall miss latency
system.cpu.dcache.demand_avg_miss_latency::.switch_cpus_1.data 17787.488603                       # average overall miss latency
system.cpu.dcache.demand_avg_miss_latency::total  8487.036201                       # average overall miss latency
system.cpu.dcache.overall_avg_miss_latency::.switch_cpus.data 18993.199827                       # average overall miss latency
system.cpu.dcache.overall_avg_miss_latency::.switch_cpus_1.data 17787.488603                       # average overall miss latency
system.cpu.dcache.overall_avg_miss_latency::total  8486.042456                       # average overall miss latency
system.cpu.dcache.blocked_cycles::no_mshrs       262670                       # number of cycles access was blocked
system.cpu.dcache.blocked_cycles::no_targets          164                       # number of cycles access was blocked
system.cpu.dcache.blocked::no_mshrs             38078                       # number of cycles access was blocked
system.cpu.dcache.blocked::no_targets               1                       # number of cycles access was blocked
system.cpu.dcache.avg_blocked_cycles::no_mshrs     6.898209                       # average number of cycles each access was blocked
system.cpu.dcache.avg_blocked_cycles::no_targets          164                       # average number of cycles each access was blocked
system.cpu.dcache.writebacks::.writebacks     10548900                       # number of writebacks
system.cpu.dcache.writebacks::total          10548900                       # number of writebacks
system.cpu.dcache.demand_mshr_hits::.switch_cpus_1.data       686887                       # number of demand (read+write) MSHR hits
system.cpu.dcache.demand_mshr_hits::total       686887                       # number of demand (read+write) MSHR hits
system.cpu.dcache.overall_mshr_hits::.switch_cpus_1.data       686887                       # number of overall MSHR hits
system.cpu.dcache.overall_mshr_hits::total       686887                       # number of overall MSHR hits
system.cpu.dcache.demand_mshr_misses::.switch_cpus.data       639322                       # number of demand (read+write) MSHR misses
system.cpu.dcache.demand_mshr_misses::.switch_cpus_1.data      4571044                       # number of demand (read+write) MSHR misses
system.cpu.dcache.demand_mshr_misses::total      5210366                       # number of demand (read+write) MSHR misses
system.cpu.dcache.overall_mshr_misses::.switch_cpus.data       639322                       # number of overall MSHR misses
system.cpu.dcache.overall_mshr_misses::.switch_cpus_1.data      4571044                       # number of overall MSHR misses
system.cpu.dcache.overall_mshr_misses::total      5210366                       # number of overall MSHR misses
system.cpu.dcache.demand_mshr_miss_latency::.switch_cpus.data  11823109500                       # number of demand (read+write) MSHR miss cycles
system.cpu.dcache.demand_mshr_miss_latency::.switch_cpus_1.data  87147144650                       # number of demand (read+write) MSHR miss cycles
system.cpu.dcache.demand_mshr_miss_latency::total  98970254150                       # number of demand (read+write) MSHR miss cycles
system.cpu.dcache.overall_mshr_miss_latency::.switch_cpus.data  11823109500                       # number of overall MSHR miss cycles
system.cpu.dcache.overall_mshr_miss_latency::.switch_cpus_1.data  87147144650                       # number of overall MSHR miss cycles
system.cpu.dcache.overall_mshr_miss_latency::total  98970254150                       # number of overall MSHR miss cycles
system.cpu.dcache.demand_mshr_miss_rate::.switch_cpus.data     0.010975                       # mshr miss rate for demand accesses
system.cpu.dcache.demand_mshr_miss_rate::.switch_cpus_1.data     0.011623                       # mshr miss rate for demand accesses
system.cpu.dcache.demand_mshr_miss_rate::total     0.005053                       # mshr miss rate for demand accesses
system.cpu.dcache.overall_mshr_miss_rate::.switch_cpus.data     0.010975                       # mshr miss rate for overall accesses
system.cpu.dcache.overall_mshr_miss_rate::.switch_cpus_1.data     0.011623                       # mshr miss rate for overall accesses
system.cpu.dcache.overall_mshr_miss_rate::total     0.005053                       # mshr miss rate for overall accesses
system.cpu.dcache.demand_avg_mshr_miss_latency::.switch_cpus.data 18493.199827                       # average overall mshr miss latency
system.cpu.dcache.demand_avg_mshr_miss_latency::.switch_cpus_1.data 19065.041739                       # average overall mshr miss latency
system.cpu.dcache.demand_avg_mshr_miss_latency::total 18994.875629                       # average overall mshr miss latency
system.cpu.dcache.overall_avg_mshr_miss_latency::.switch_cpus.data 18493.199827                       # average overall mshr miss latency
system.cpu.dcache.overall_avg_mshr_miss_latency::.switch_cpus_1.data 19065.041739                       # average overall mshr miss latency
system.cpu.dcache.overall_avg_mshr_miss_latency::total 18994.875629                       # average overall mshr miss latency
system.cpu.dcache.replacements               11761915                       # number of replacements
system.cpu.dcache.ReadReq_hits::.cpu.data    422800773                       # number of ReadReq hits
system.cpu.dcache.ReadReq_hits::.switch_cpus.data     42592000                       # number of ReadReq hits
system.cpu.dcache.ReadReq_hits::.switch_cpus_1.data    281930661                       # number of ReadReq hits
system.cpu.dcache.ReadReq_hits::total       747323434                       # number of ReadReq hits
system.cpu.dcache.ReadReq_misses::.cpu.data      3686920                       # number of ReadReq misses
system.cpu.dcache.ReadReq_misses::.switch_cpus.data       349627                       # number of ReadReq misses
system.cpu.dcache.ReadReq_misses::.switch_cpus_1.data      3209146                       # number of ReadReq misses
system.cpu.dcache.ReadReq_misses::total       7245693                       # number of ReadReq misses
system.cpu.dcache.ReadReq_miss_latency::.switch_cpus.data   2744265500                       # number of ReadReq miss cycles
system.cpu.dcache.ReadReq_miss_latency::.switch_cpus_1.data  24351966500                       # number of ReadReq miss cycles
system.cpu.dcache.ReadReq_miss_latency::total  27096232000                       # number of ReadReq miss cycles
system.cpu.dcache.ReadReq_accesses::.cpu.data    426487693                       # number of ReadReq accesses(hits+misses)
system.cpu.dcache.ReadReq_accesses::.switch_cpus.data     42941627                       # number of ReadReq accesses(hits+misses)
system.cpu.dcache.ReadReq_accesses::.switch_cpus_1.data    285139807                       # number of ReadReq accesses(hits+misses)
system.cpu.dcache.ReadReq_accesses::total    754569127                       # number of ReadReq accesses(hits+misses)
system.cpu.dcache.ReadReq_miss_rate::.cpu.data     0.008645                       # miss rate for ReadReq accesses
system.cpu.dcache.ReadReq_miss_rate::.switch_cpus.data     0.008142                       # miss rate for ReadReq accesses
system.cpu.dcache.ReadReq_miss_rate::.switch_cpus_1.data     0.011255                       # miss rate for ReadReq accesses
system.cpu.dcache.ReadReq_miss_rate::total     0.009602                       # miss rate for ReadReq accesses
system.cpu.dcache.ReadReq_avg_miss_latency::.switch_cpus.data  7849.123494                       # average ReadReq miss latency
system.cpu.dcache.ReadReq_avg_miss_latency::.switch_cpus_1.data  7588.301218                       # average ReadReq miss latency
system.cpu.dcache.ReadReq_avg_miss_latency::total  3739.632910                       # average ReadReq miss latency
system.cpu.dcache.ReadReq_mshr_hits::.switch_cpus_1.data       683515                       # number of ReadReq MSHR hits
system.cpu.dcache.ReadReq_mshr_hits::total       683515                       # number of ReadReq MSHR hits
system.cpu.dcache.ReadReq_mshr_misses::.switch_cpus.data       349627                       # number of ReadReq MSHR misses
system.cpu.dcache.ReadReq_mshr_misses::.switch_cpus_1.data      2525631                       # number of ReadReq MSHR misses
system.cpu.dcache.ReadReq_mshr_misses::total      2875258                       # number of ReadReq MSHR misses
system.cpu.dcache.ReadReq_mshr_miss_latency::.switch_cpus.data   2569452000                       # number of ReadReq MSHR miss cycles
system.cpu.dcache.ReadReq_mshr_miss_latency::.switch_cpus_1.data  19016761500                       # number of ReadReq MSHR miss cycles
system.cpu.dcache.ReadReq_mshr_miss_latency::total  21586213500                       # number of ReadReq MSHR miss cycles
system.cpu.dcache.ReadReq_mshr_miss_rate::.switch_cpus.data     0.008142                       # mshr miss rate for ReadReq accesses
system.cpu.dcache.ReadReq_mshr_miss_rate::.switch_cpus_1.data     0.008858                       # mshr miss rate for ReadReq accesses
system.cpu.dcache.ReadReq_mshr_miss_rate::total     0.003810                       # mshr miss rate for ReadReq accesses
system.cpu.dcache.ReadReq_avg_mshr_miss_latency::.switch_cpus.data  7349.123494                       # average ReadReq mshr miss latency
system.cpu.dcache.ReadReq_avg_mshr_miss_latency::.switch_cpus_1.data  7529.509061                       # average ReadReq mshr miss latency
system.cpu.dcache.ReadReq_avg_mshr_miss_latency::total  7507.574451                       # average ReadReq mshr miss latency
system.cpu.dcache.WriteReq_hits::.cpu.data    150214234                       # number of WriteReq hits
system.cpu.dcache.WriteReq_hits::.switch_cpus.data     15018600                       # number of WriteReq hits
system.cpu.dcache.WriteReq_hits::.switch_cpus_1.data    106088316                       # number of WriteReq hits
system.cpu.dcache.WriteReq_hits::total      271321150                       # number of WriteReq hits
system.cpu.dcache.WriteReq_misses::.cpu.data      2866364                       # number of WriteReq misses
system.cpu.dcache.WriteReq_misses::.switch_cpus.data       289695                       # number of WriteReq misses
system.cpu.dcache.WriteReq_misses::.switch_cpus_1.data      2048785                       # number of WriteReq misses
system.cpu.dcache.WriteReq_misses::total      5204844                       # number of WriteReq misses
system.cpu.dcache.WriteReq_miss_latency::.switch_cpus.data   9398505000                       # number of WriteReq miss cycles
system.cpu.dcache.WriteReq_miss_latency::.switch_cpus_1.data  69173421238                       # number of WriteReq miss cycles
system.cpu.dcache.WriteReq_miss_latency::total  78571926238                       # number of WriteReq miss cycles
system.cpu.dcache.WriteReq_accesses::.cpu.data    153080598                       # number of WriteReq accesses(hits+misses)
system.cpu.dcache.WriteReq_accesses::.switch_cpus.data     15308295                       # number of WriteReq accesses(hits+misses)
system.cpu.dcache.WriteReq_accesses::.switch_cpus_1.data    108137101                       # number of WriteReq accesses(hits+misses)
system.cpu.dcache.WriteReq_accesses::total    276525994                       # number of WriteReq accesses(hits+misses)
system.cpu.dcache.WriteReq_miss_rate::.cpu.data     0.018725                       # miss rate for WriteReq accesses
system.cpu.dcache.WriteReq_miss_rate::.switch_cpus.data     0.018924                       # miss rate for WriteReq accesses
system.cpu.dcache.WriteReq_miss_rate::.switch_cpus_1.data     0.018946                       # miss rate for WriteReq accesses
system.cpu.dcache.WriteReq_miss_rate::total     0.018822                       # miss rate for WriteReq accesses
system.cpu.dcache.WriteReq_avg_miss_latency::.switch_cpus.data 32442.758764                       # average WriteReq miss latency
system.cpu.dcache.WriteReq_avg_miss_latency::.switch_cpus_1.data 33763.143150                       # average WriteReq miss latency
system.cpu.dcache.WriteReq_avg_miss_latency::total 15095.923382                       # average WriteReq miss latency
system.cpu.dcache.WriteReq_mshr_hits::.switch_cpus_1.data         3372                       # number of WriteReq MSHR hits
system.cpu.dcache.WriteReq_mshr_hits::total         3372                       # number of WriteReq MSHR hits
system.cpu.dcache.WriteReq_mshr_misses::.switch_cpus.data       289695                       # number of WriteReq MSHR misses
system.cpu.dcache.WriteReq_mshr_misses::.switch_cpus_1.data      2045413                       # number of WriteReq MSHR misses
system.cpu.dcache.WriteReq_mshr_misses::total      2335108                       # number of WriteReq MSHR misses
system.cpu.dcache.WriteReq_mshr_miss_latency::.switch_cpus.data   9253657500                       # number of WriteReq MSHR miss cycles
system.cpu.dcache.WriteReq_mshr_miss_latency::.switch_cpus_1.data  68130383150                       # number of WriteReq MSHR miss cycles
system.cpu.dcache.WriteReq_mshr_miss_latency::total  77384040650                       # number of WriteReq MSHR miss cycles
system.cpu.dcache.WriteReq_mshr_miss_rate::.switch_cpus.data     0.018924                       # mshr miss rate for WriteReq accesses
system.cpu.dcache.WriteReq_mshr_miss_rate::.switch_cpus_1.data     0.018915                       # mshr miss rate for WriteReq accesses
system.cpu.dcache.WriteReq_mshr_miss_rate::total     0.008444                       # mshr miss rate for WriteReq accesses
system.cpu.dcache.WriteReq_avg_mshr_miss_latency::.switch_cpus.data 31942.758764                       # average WriteReq mshr miss latency
system.cpu.dcache.WriteReq_avg_mshr_miss_latency::.switch_cpus_1.data 33308.863858                       # average WriteReq mshr miss latency
system.cpu.dcache.WriteReq_avg_mshr_miss_latency::total 33139.383981                       # average WriteReq mshr miss latency
system.cpu.dcache.SoftPFReq_hits::.cpu.data         3898                       # number of SoftPFReq hits
system.cpu.dcache.SoftPFReq_hits::total          3898                       # number of SoftPFReq hits
system.cpu.dcache.SoftPFReq_misses::.cpu.data         1458                       # number of SoftPFReq misses
system.cpu.dcache.SoftPFReq_misses::total         1458                       # number of SoftPFReq misses
system.cpu.dcache.SoftPFReq_accesses::.cpu.data         5356                       # number of SoftPFReq accesses(hits+misses)
system.cpu.dcache.SoftPFReq_accesses::total         5356                       # number of SoftPFReq accesses(hits+misses)
system.cpu.dcache.SoftPFReq_miss_rate::.cpu.data     0.272218                       # miss rate for SoftPFReq accesses
system.cpu.dcache.SoftPFReq_miss_rate::total     0.272218                       # miss rate for SoftPFReq accesses
system.cpu.dcache.power_state.pwrStateResidencyTicks::UNDEFINED 1242976914500                       # Cumulative time (in ticks) in various power states
system.cpu.dcache.tags.tagsinuse           511.994992                       # Cycle average of tags in use
system.cpu.dcache.tags.total_refs          1030413781                       # Total number of references to valid blocks.
system.cpu.dcache.tags.sampled_refs          11762427                       # Sample count of references to valid blocks.
system.cpu.dcache.tags.avg_refs             87.602140                       # Average number of references to valid blocks.
system.cpu.dcache.tags.warmup_cycle              1500                       # Cycle when the warmup percentage was hit.
system.cpu.dcache.tags.occ_blocks::.cpu.data   393.012555                       # Average occupied blocks per requestor
system.cpu.dcache.tags.occ_blocks::.switch_cpus.data    45.129713                       # Average occupied blocks per requestor
system.cpu.dcache.tags.occ_blocks::.switch_cpus_1.data    73.852724                       # Average occupied blocks per requestor
system.cpu.dcache.tags.occ_percent::.cpu.data     0.767603                       # Average percentage of cache occupancy
system.cpu.dcache.tags.occ_percent::.switch_cpus.data     0.088144                       # Average percentage of cache occupancy
system.cpu.dcache.tags.occ_percent::.switch_cpus_1.data     0.144244                       # Average percentage of cache occupancy
system.cpu.dcache.tags.occ_percent::total     0.999990                       # Average percentage of cache occupancy
system.cpu.dcache.tags.occ_task_id_blocks::1024          512                       # Occupied blocks per task id
system.cpu.dcache.tags.age_task_id_blocks_1024::0          243                       # Occupied blocks per task id
system.cpu.dcache.tags.age_task_id_blocks_1024::1          237                       # Occupied blocks per task id
system.cpu.dcache.tags.age_task_id_blocks_1024::2           31                       # Occupied blocks per task id
system.cpu.dcache.tags.age_task_id_blocks_1024::4            1                       # Occupied blocks per task id
system.cpu.dcache.tags.occ_task_id_percent::1024            1                       # Percentage of cache occupancy per task id
system.cpu.dcache.tags.tag_accesses        4136164335                       # Number of tag accesses
system.cpu.dcache.tags.data_accesses       4136164335                       # Number of data accesses
system.cpu.dcache.tags.cache_friendly               0                       # Number of cache friendly accesses
system.cpu.dcache.tags.cache_averse        1030413781                       # Number of cache averse accesses
system.cpu.dcache.tags.OPT_hits                     0                       # Number of OPT hits
system.cpu.dcache.tags.OPT_misses                   0                       # Number of OPT misses
system.cpu.dcache.tags.OPT_nan             1031100477                       # Number of OPT nan
system.cpu.dcache.tags.power_state.pwrStateResidencyTicks::UNDEFINED 1242976914500                       # Cumulative time (in ticks) in various power states
system.cpu.power_state.numTransitions               2                       # Number of power state transitions
system.cpu.power_state.pwrStateResidencyTicks::ON 953490921500                       # Cumulative time (in ticks) in various power states
system.cpu.power_state.pwrStateResidencyTicks::OFF 289485993000                       # Cumulative time (in ticks) in various power states

---------- End Simulation Statistics   ----------
