
---------- Begin Simulation Statistics ----------
final_tick                                  300554000                       # Number of ticks from beginning of simulation (restored from checkpoints and never reset)
host_inst_rate                                 777901                       # Simulator instruction rate (inst/s)
host_mem_usage                                 729892                       # Number of bytes of host memory used
host_op_rate                                  1510742                       # Simulator op (including micro ops) rate (op/s)
host_seconds                                     0.16                       # Real time elapsed on the host
host_tick_rate                              124145828                       # Simulator tick rate (ticks/s)
sim_freq                                 1000000000000                       # Frequency of simulated ticks
sim_insts                                      125103                       # Number of instructions simulated
sim_ops                                        243061                       # Number of ops (including micro ops) simulated
sim_seconds                                  0.000020                       # Number of seconds simulated
sim_ticks                                    19975250                       # Number of ticks simulated
system.cpu.committedInsts                           0                       # Number of instructions committed
system.cpu.committedOps                             0                       # Number of ops (including micro ops) committed
system.cpu.dtb.rdAccesses                           0                       # TLB accesses on read requests
system.cpu.dtb.rdMisses                             0                       # TLB misses on read requests
system.cpu.dtb.wrAccesses                           0                       # TLB accesses on write requests
system.cpu.dtb.wrMisses                             0                       # TLB misses on write requests
system.cpu.idle_fraction                            0                       # Percentage of idle cycles
system.cpu.itb.rdAccesses                           0                       # TLB accesses on read requests
system.cpu.itb.rdMisses                             0                       # TLB misses on read requests
system.cpu.itb.wrAccesses                           0                       # TLB accesses on write requests
system.cpu.itb.wrMisses                             0                       # TLB misses on write requests
system.cpu.not_idle_fraction                        1                       # Percentage of non-idle cycles
system.cpu.numCycles                                0                       # number of cpu cycles simulated
system.cpu.numWorkItemsCompleted                    0                       # number of work items this cpu completed
system.cpu.numWorkItemsStarted                      0                       # number of work items this cpu started
system.cpu.num_busy_cycles                          0                       # Number of busy cycles
system.cpu.num_conditional_control_insts            0                       # number of instructions that are conditional controls
system.cpu.num_fp_alu_accesses                      0                       # Number of float alu accesses
system.cpu.num_fp_insts                             0                       # number of float instructions
system.cpu.num_fp_register_reads                    0                       # number of times the floating registers were read
system.cpu.num_fp_register_writes                   0                       # number of times the floating registers were written
system.cpu.num_func_calls                           0                       # number of times a function call or return occured
system.cpu.num_idle_cycles                          0                       # Number of idle cycles
system.cpu.num_int_alu_accesses                     0                       # Number of integer alu accesses
system.cpu.num_int_insts                            0                       # number of integer instructions
system.cpu.num_int_register_reads                   0                       # number of times the integer registers were read
system.cpu.num_int_register_writes                  0                       # number of times the integer registers were written
system.cpu.num_load_insts                           0                       # Number of load instructions
system.cpu.num_mem_refs                             0                       # number of memory refs
system.cpu.num_store_insts                          0                       # Number of store instructions
system.cpu.num_vec_alu_accesses                     0                       # Number of vector alu accesses
system.cpu.num_vec_insts                            0                       # number of vector instructions
system.cpu.num_vec_register_reads                   0                       # number of times the vector registers were read
system.cpu.num_vec_register_writes                  0                       # number of times the vector registers were written
system.cpu.op_class::No_OpClass                     0                       # Class of executed instruction
system.cpu.op_class::IntAlu                         0                       # Class of executed instruction
system.cpu.op_class::IntMult                        0                       # Class of executed instruction
system.cpu.op_class::IntDiv                         0                       # Class of executed instruction
system.cpu.op_class::FloatAdd                       0                       # Class of executed instruction
system.cpu.op_class::FloatCmp                       0                       # Class of executed instruction
system.cpu.op_class::FloatCvt                       0                       # Class of executed instruction
system.cpu.op_class::FloatMult                      0                       # Class of executed instruction
system.cpu.op_class::FloatMultAcc                   0                       # Class of executed instruction
system.cpu.op_class::FloatDiv                       0                       # Class of executed instruction
system.cpu.op_class::FloatMisc                      0                       # Class of executed instruction
system.cpu.op_class::FloatSqrt                      0                       # Class of executed instruction
system.cpu.op_class::SimdAdd                        0                       # Class of executed instruction
system.cpu.op_class::SimdAddAcc                     0                       # Class of executed instruction
system.cpu.op_class::SimdAlu                        0                       # Class of executed instruction
system.cpu.op_class::SimdCmp                        0                       # Class of executed instruction
system.cpu.op_class::SimdCvt                        0                       # Class of executed instruction
system.cpu.op_class::SimdMisc                       0                       # Class of executed instruction
system.cpu.op_class::SimdMult                       0                       # Class of executed instruction
system.cpu.op_class::SimdMultAcc                    0                       # Class of executed instruction
system.cpu.op_class::SimdShift                      0                       # Class of executed instruction
system.cpu.op_class::SimdShiftAcc                   0                       # Class of executed instruction
system.cpu.op_class::SimdDiv                        0                       # Class of executed instruction
system.cpu.op_class::SimdSqrt                       0                       # Class of executed instruction
system.cpu.op_class::SimdFloatAdd                   0                       # Class of executed instruction
system.cpu.op_class::SimdFloatAlu                   0                       # Class of executed instruction
system.cpu.op_class::SimdFloatCmp                   0                       # Class of executed instruction
system.cpu.op_class::SimdFloatCvt                   0                       # Class of executed instruction
system.cpu.op_class::SimdFloatDiv                   0                       # Class of executed instruction
system.cpu.op_class::SimdFloatMisc                  0                       # Class of executed instruction
system.cpu.op_class::SimdFloatMult                  0                       # Class of executed instruction
system.cpu.op_class::SimdFloatMultAcc               0                       # Class of executed instruction
system.cpu.op_class::SimdFloatSqrt                  0                       # Class of executed instruction
system.cpu.op_class::SimdReduceAdd                  0                       # Class of executed instruction
system.cpu.op_class::SimdReduceAlu                  0                       # Class of executed instruction
system.cpu.op_class::SimdReduceCmp                  0                       # Class of executed instruction
system.cpu.op_class::SimdFloatReduceAdd             0                       # Class of executed instruction
system.cpu.op_class::SimdFloatReduceCmp             0                       # Class of executed instruction
system.cpu.op_class::SimdAes                        0                       # Class of executed instruction
system.cpu.op_class::SimdAesMix                     0                       # Class of executed instruction
system.cpu.op_class::SimdSha1Hash                   0                       # Class of executed instruction
system.cpu.op_class::SimdSha1Hash2                  0                       # Class of executed instruction
system.cpu.op_class::SimdSha256Hash                 0                       # Class of executed instruction
system.cpu.op_class::SimdSha256Hash2                0                       # Class of executed instruction
system.cpu.op_class::SimdShaSigma2                  0                       # Class of executed instruction
system.cpu.op_class::SimdShaSigma3                  0                       # Class of executed instruction
system.cpu.op_class::SimdPredAlu                    0                       # Class of executed instruction
system.cpu.op_class::MemRead                        0                       # Class of executed instruction
system.cpu.op_class::MemWrite                       0                       # Class of executed instruction
system.cpu.op_class::FloatMemRead                   0                       # Class of executed instruction
system.cpu.op_class::FloatMemWrite                  0                       # Class of executed instruction
system.cpu.op_class::IprAccess                      0                       # Class of executed instruction
system.cpu.op_class::InstPrefetch                   0                       # Class of executed instruction
system.cpu.op_class::total                          0                       # Class of executed instruction
system.cpu.workload.numSyscalls                     0                       # Number of system calls
system.membus.snoop_filter.hit_multi_requests            0                       # Number of requests hitting in the snoop filter with multiple (>1) holders of the requested data.
system.membus.snoop_filter.hit_multi_snoops            0                       # Number of snoops hitting in the snoop filter with multiple (>1) holders of the requested data.
system.membus.snoop_filter.hit_single_requests            0                       # Number of requests hitting in the snoop filter with a single holder of the requested data.
system.membus.snoop_filter.hit_single_snoops            0                       # Number of snoops hitting in the snoop filter with a single holder of the requested data.
system.membus.snoop_filter.tot_requests           192                       # Total number of requests made to the snoop filter.
system.membus.snoop_filter.tot_snoops               0                       # Total number of snoops made to the snoop filter.
system.switch_cpus.committedInsts                   0                       # Number of instructions committed
system.switch_cpus.committedOps                     0                       # Number of ops (including micro ops) committed
system.switch_cpus.dtb.rdAccesses                   0                       # TLB accesses on read requests
system.switch_cpus.dtb.rdMisses                     0                       # TLB misses on read requests
system.switch_cpus.dtb.wrAccesses                   0                       # TLB accesses on write requests
system.switch_cpus.dtb.wrMisses                     0                       # TLB misses on write requests
system.switch_cpus.idle_fraction                    0                       # Percentage of idle cycles
system.switch_cpus.itb.rdAccesses                   0                       # TLB accesses on read requests
system.switch_cpus.itb.rdMisses                     0                       # TLB misses on read requests
system.switch_cpus.itb.wrAccesses                   0                       # TLB accesses on write requests
system.switch_cpus.itb.wrMisses                     0                       # TLB misses on write requests
system.switch_cpus.not_idle_fraction                1                       # Percentage of non-idle cycles
system.switch_cpus.numCycles                        0                       # number of cpu cycles simulated
system.switch_cpus.numWorkItemsCompleted            0                       # number of work items this cpu completed
system.switch_cpus.numWorkItemsStarted              0                       # number of work items this cpu started
system.switch_cpus.num_busy_cycles                  0                       # Number of busy cycles
system.switch_cpus.num_conditional_control_insts            0                       # number of instructions that are conditional controls
system.switch_cpus.num_fp_alu_accesses              0                       # Number of float alu accesses
system.switch_cpus.num_fp_insts                     0                       # number of float instructions
system.switch_cpus.num_fp_register_reads            0                       # number of times the floating registers were read
system.switch_cpus.num_fp_register_writes            0                       # number of times the floating registers were written
system.switch_cpus.num_func_calls                   0                       # number of times a function call or return occured
system.switch_cpus.num_idle_cycles                  0                       # Number of idle cycles
system.switch_cpus.num_int_alu_accesses             0                       # Number of integer alu accesses
system.switch_cpus.num_int_insts                    0                       # number of integer instructions
system.switch_cpus.num_int_register_reads            0                       # number of times the integer registers were read
system.switch_cpus.num_int_register_writes            0                       # number of times the integer registers were written
system.switch_cpus.num_load_insts                   0                       # Number of load instructions
system.switch_cpus.num_mem_refs                     0                       # number of memory refs
system.switch_cpus.num_store_insts                  0                       # Number of store instructions
system.switch_cpus.num_vec_alu_accesses             0                       # Number of vector alu accesses
system.switch_cpus.num_vec_insts                    0                       # number of vector instructions
system.switch_cpus.num_vec_register_reads            0                       # number of times the vector registers were read
system.switch_cpus.num_vec_register_writes            0                       # number of times the vector registers were written
system.switch_cpus.op_class::No_OpClass             0                       # Class of executed instruction
system.switch_cpus.op_class::IntAlu                 0                       # Class of executed instruction
system.switch_cpus.op_class::IntMult                0                       # Class of executed instruction
system.switch_cpus.op_class::IntDiv                 0                       # Class of executed instruction
system.switch_cpus.op_class::FloatAdd               0                       # Class of executed instruction
system.switch_cpus.op_class::FloatCmp               0                       # Class of executed instruction
system.switch_cpus.op_class::FloatCvt               0                       # Class of executed instruction
system.switch_cpus.op_class::FloatMult              0                       # Class of executed instruction
system.switch_cpus.op_class::FloatMultAcc            0                       # Class of executed instruction
system.switch_cpus.op_class::FloatDiv               0                       # Class of executed instruction
system.switch_cpus.op_class::FloatMisc              0                       # Class of executed instruction
system.switch_cpus.op_class::FloatSqrt              0                       # Class of executed instruction
system.switch_cpus.op_class::SimdAdd                0                       # Class of executed instruction
system.switch_cpus.op_class::SimdAddAcc             0                       # Class of executed instruction
system.switch_cpus.op_class::SimdAlu                0                       # Class of executed instruction
system.switch_cpus.op_class::SimdCmp                0                       # Class of executed instruction
system.switch_cpus.op_class::SimdCvt                0                       # Class of executed instruction
system.switch_cpus.op_class::SimdMisc               0                       # Class of executed instruction
system.switch_cpus.op_class::SimdMult               0                       # Class of executed instruction
system.switch_cpus.op_class::SimdMultAcc            0                       # Class of executed instruction
system.switch_cpus.op_class::SimdShift              0                       # Class of executed instruction
system.switch_cpus.op_class::SimdShiftAcc            0                       # Class of executed instruction
system.switch_cpus.op_class::SimdDiv                0                       # Class of executed instruction
system.switch_cpus.op_class::SimdSqrt               0                       # Class of executed instruction
system.switch_cpus.op_class::SimdFloatAdd            0                       # Class of executed instruction
system.switch_cpus.op_class::SimdFloatAlu            0                       # Class of executed instruction
system.switch_cpus.op_class::SimdFloatCmp            0                       # Class of executed instruction
system.switch_cpus.op_class::SimdFloatCvt            0                       # Class of executed instruction
system.switch_cpus.op_class::SimdFloatDiv            0                       # Class of executed instruction
system.switch_cpus.op_class::SimdFloatMisc            0                       # Class of executed instruction
system.switch_cpus.op_class::SimdFloatMult            0                       # Class of executed instruction
system.switch_cpus.op_class::SimdFloatMultAcc            0                       # Class of executed instruction
system.switch_cpus.op_class::SimdFloatSqrt            0                       # Class of executed instruction
system.switch_cpus.op_class::SimdReduceAdd            0                       # Class of executed instruction
system.switch_cpus.op_class::SimdReduceAlu            0                       # Class of executed instruction
system.switch_cpus.op_class::SimdReduceCmp            0                       # Class of executed instruction
system.switch_cpus.op_class::SimdFloatReduceAdd            0                       # Class of executed instruction
system.switch_cpus.op_class::SimdFloatReduceCmp            0                       # Class of executed instruction
system.switch_cpus.op_class::SimdAes                0                       # Class of executed instruction
system.switch_cpus.op_class::SimdAesMix             0                       # Class of executed instruction
system.switch_cpus.op_class::SimdSha1Hash            0                       # Class of executed instruction
system.switch_cpus.op_class::SimdSha1Hash2            0                       # Class of executed instruction
system.switch_cpus.op_class::SimdSha256Hash            0                       # Class of executed instruction
system.switch_cpus.op_class::SimdSha256Hash2            0                       # Class of executed instruction
system.switch_cpus.op_class::SimdShaSigma2            0                       # Class of executed instruction
system.switch_cpus.op_class::SimdShaSigma3            0                       # Class of executed instruction
system.switch_cpus.op_class::SimdPredAlu            0                       # Class of executed instruction
system.switch_cpus.op_class::MemRead                0                       # Class of executed instruction
system.switch_cpus.op_class::MemWrite               0                       # Class of executed instruction
system.switch_cpus.op_class::FloatMemRead            0                       # Class of executed instruction
system.switch_cpus.op_class::FloatMemWrite            0                       # Class of executed instruction
system.switch_cpus.op_class::IprAccess              0                       # Class of executed instruction
system.switch_cpus.op_class::InstPrefetch            0                       # Class of executed instruction
system.switch_cpus.op_class::total                  0                       # Class of executed instruction
system.switch_cpus_1.branchPred.BTBCorrect            0                       # Number of correct BTB predictions (this stat may not work properly.
system.switch_cpus_1.branchPred.BTBHitPct          nan                       # BTB Hit Percentage
system.switch_cpus_1.branchPred.BTBHits             0                       # Number of BTB hits
system.switch_cpus_1.branchPred.BTBLookups            0                       # Number of BTB lookups
system.switch_cpus_1.branchPred.RASInCorrect            0                       # Number of incorrect RAS predictions.
system.switch_cpus_1.branchPred.condIncorrect          806                       # Number of conditional branches incorrect
system.switch_cpus_1.branchPred.condPredicted         9861                       # Number of conditional branches predicted
system.switch_cpus_1.branchPred.indirectHits         1733                       # Number of indirect target hits.
system.switch_cpus_1.branchPred.indirectLookups         3447                       # Number of indirect predictor lookups.
system.switch_cpus_1.branchPred.indirectMisses         1714                       # Number of indirect misses.
system.switch_cpus_1.branchPred.lookups         10544                       # Number of BP lookups
system.switch_cpus_1.branchPred.usedRAS           121                       # Number of times the RAS was used to get a target.
system.switch_cpus_1.branchPredindirectMispredicted          384                       # Number of mispredicted indirect branches.
system.switch_cpus_1.cc_regfile_reads           31262                       # number of cc regfile reads
system.switch_cpus_1.cc_regfile_writes          19916                       # number of cc regfile writes
system.switch_cpus_1.commit.amos                    0                       # Number of atomic instructions committed
system.switch_cpus_1.commit.branchMispredicts          806                       # The number of times a branch was mispredicted
system.switch_cpus_1.commit.branches             3867                       # Number of branches committed
system.switch_cpus_1.commit.bw_lim_events         2448                       # number cycles where commit BW limit reached
system.switch_cpus_1.commit.commitSquashedInsts        34947                       # The number of squashed insts skipped by commit
system.switch_cpus_1.commit.committedInsts        21342                       # Number of instructions committed
system.switch_cpus_1.commit.committedOps        37503                       # Number of ops (including micro ops) committed
system.switch_cpus_1.commit.committed_per_cycle::samples        34152                       # Number of insts commited each cycle
system.switch_cpus_1.commit.committed_per_cycle::mean     1.098120                       # Number of insts commited each cycle
system.switch_cpus_1.commit.committed_per_cycle::stdev     2.290607                       # Number of insts commited each cycle
system.switch_cpus_1.commit.committed_per_cycle::underflows            0      0.00%      0.00% # Number of insts commited each cycle
system.switch_cpus_1.commit.committed_per_cycle::0        24790     72.59%     72.59% # Number of insts commited each cycle
system.switch_cpus_1.commit.committed_per_cycle::1         2225      6.51%     79.10% # Number of insts commited each cycle
system.switch_cpus_1.commit.committed_per_cycle::2         1511      4.42%     83.53% # Number of insts commited each cycle
system.switch_cpus_1.commit.committed_per_cycle::3         1635      4.79%     88.31% # Number of insts commited each cycle
system.switch_cpus_1.commit.committed_per_cycle::4          599      1.75%     90.07% # Number of insts commited each cycle
system.switch_cpus_1.commit.committed_per_cycle::5          477      1.40%     91.46% # Number of insts commited each cycle
system.switch_cpus_1.commit.committed_per_cycle::6          283      0.83%     92.29% # Number of insts commited each cycle
system.switch_cpus_1.commit.committed_per_cycle::7          184      0.54%     92.83% # Number of insts commited each cycle
system.switch_cpus_1.commit.committed_per_cycle::8         2448      7.17%    100.00% # Number of insts commited each cycle
system.switch_cpus_1.commit.committed_per_cycle::overflows            0      0.00%    100.00% # Number of insts commited each cycle
system.switch_cpus_1.commit.committed_per_cycle::min_value            0                       # Number of insts commited each cycle
system.switch_cpus_1.commit.committed_per_cycle::max_value            8                       # Number of insts commited each cycle
system.switch_cpus_1.commit.committed_per_cycle::total        34152                       # Number of insts commited each cycle
system.switch_cpus_1.commit.fp_insts              966                       # Number of committed floating point instructions.
system.switch_cpus_1.commit.function_calls           80                       # Number of function calls committed.
system.switch_cpus_1.commit.int_insts           36777                       # Number of committed integer instructions.
system.switch_cpus_1.commit.loads                6434                       # Number of loads committed
system.switch_cpus_1.commit.membars                 0                       # Number of memory barriers committed
system.switch_cpus_1.commit.op_class_0::No_OpClass          230      0.61%      0.61% # Class of committed instruction
system.switch_cpus_1.commit.op_class_0::IntAlu        27838     74.23%     74.84% # Class of committed instruction
system.switch_cpus_1.commit.op_class_0::IntMult            0      0.00%     74.84% # Class of committed instruction
system.switch_cpus_1.commit.op_class_0::IntDiv          493      1.31%     76.16% # Class of committed instruction
system.switch_cpus_1.commit.op_class_0::FloatAdd           26      0.07%     76.23% # Class of committed instruction
system.switch_cpus_1.commit.op_class_0::FloatCmp            0      0.00%     76.23% # Class of committed instruction
system.switch_cpus_1.commit.op_class_0::FloatCvt            0      0.00%     76.23% # Class of committed instruction
system.switch_cpus_1.commit.op_class_0::FloatMult            0      0.00%     76.23% # Class of committed instruction
system.switch_cpus_1.commit.op_class_0::FloatMultAcc            0      0.00%     76.23% # Class of committed instruction
system.switch_cpus_1.commit.op_class_0::FloatDiv            0      0.00%     76.23% # Class of committed instruction
system.switch_cpus_1.commit.op_class_0::FloatMisc            0      0.00%     76.23% # Class of committed instruction
system.switch_cpus_1.commit.op_class_0::FloatSqrt            0      0.00%     76.23% # Class of committed instruction
system.switch_cpus_1.commit.op_class_0::SimdAdd          104      0.28%     76.50% # Class of committed instruction
system.switch_cpus_1.commit.op_class_0::SimdAddAcc            0      0.00%     76.50% # Class of committed instruction
system.switch_cpus_1.commit.op_class_0::SimdAlu          158      0.42%     76.92% # Class of committed instruction
system.switch_cpus_1.commit.op_class_0::SimdCmp            0      0.00%     76.92% # Class of committed instruction
system.switch_cpus_1.commit.op_class_0::SimdCvt          208      0.55%     77.48% # Class of committed instruction
system.switch_cpus_1.commit.op_class_0::SimdMisc          104      0.28%     77.76% # Class of committed instruction
system.switch_cpus_1.commit.op_class_0::SimdMult            0      0.00%     77.76% # Class of committed instruction
system.switch_cpus_1.commit.op_class_0::SimdMultAcc            0      0.00%     77.76% # Class of committed instruction
system.switch_cpus_1.commit.op_class_0::SimdShift            0      0.00%     77.76% # Class of committed instruction
system.switch_cpus_1.commit.op_class_0::SimdShiftAcc            0      0.00%     77.76% # Class of committed instruction
system.switch_cpus_1.commit.op_class_0::SimdDiv            0      0.00%     77.76% # Class of committed instruction
system.switch_cpus_1.commit.op_class_0::SimdSqrt            0      0.00%     77.76% # Class of committed instruction
system.switch_cpus_1.commit.op_class_0::SimdFloatAdd            0      0.00%     77.76% # Class of committed instruction
system.switch_cpus_1.commit.op_class_0::SimdFloatAlu            0      0.00%     77.76% # Class of committed instruction
system.switch_cpus_1.commit.op_class_0::SimdFloatCmp            0      0.00%     77.76% # Class of committed instruction
system.switch_cpus_1.commit.op_class_0::SimdFloatCvt            0      0.00%     77.76% # Class of committed instruction
system.switch_cpus_1.commit.op_class_0::SimdFloatDiv            0      0.00%     77.76% # Class of committed instruction
system.switch_cpus_1.commit.op_class_0::SimdFloatMisc            0      0.00%     77.76% # Class of committed instruction
system.switch_cpus_1.commit.op_class_0::SimdFloatMult            0      0.00%     77.76% # Class of committed instruction
system.switch_cpus_1.commit.op_class_0::SimdFloatMultAcc            0      0.00%     77.76% # Class of committed instruction
system.switch_cpus_1.commit.op_class_0::SimdFloatSqrt            0      0.00%     77.76% # Class of committed instruction
system.switch_cpus_1.commit.op_class_0::SimdReduceAdd            0      0.00%     77.76% # Class of committed instruction
system.switch_cpus_1.commit.op_class_0::SimdReduceAlu            0      0.00%     77.76% # Class of committed instruction
system.switch_cpus_1.commit.op_class_0::SimdReduceCmp            0      0.00%     77.76% # Class of committed instruction
system.switch_cpus_1.commit.op_class_0::SimdFloatReduceAdd            0      0.00%     77.76% # Class of committed instruction
system.switch_cpus_1.commit.op_class_0::SimdFloatReduceCmp            0      0.00%     77.76% # Class of committed instruction
system.switch_cpus_1.commit.op_class_0::SimdAes            0      0.00%     77.76% # Class of committed instruction
system.switch_cpus_1.commit.op_class_0::SimdAesMix            0      0.00%     77.76% # Class of committed instruction
system.switch_cpus_1.commit.op_class_0::SimdSha1Hash            0      0.00%     77.76% # Class of committed instruction
system.switch_cpus_1.commit.op_class_0::SimdSha1Hash2            0      0.00%     77.76% # Class of committed instruction
system.switch_cpus_1.commit.op_class_0::SimdSha256Hash            0      0.00%     77.76% # Class of committed instruction
system.switch_cpus_1.commit.op_class_0::SimdSha256Hash2            0      0.00%     77.76% # Class of committed instruction
system.switch_cpus_1.commit.op_class_0::SimdShaSigma2            0      0.00%     77.76% # Class of committed instruction
system.switch_cpus_1.commit.op_class_0::SimdShaSigma3            0      0.00%     77.76% # Class of committed instruction
system.switch_cpus_1.commit.op_class_0::SimdPredAlu            0      0.00%     77.76% # Class of committed instruction
system.switch_cpus_1.commit.op_class_0::MemRead         6174     16.46%     94.22% # Class of committed instruction
system.switch_cpus_1.commit.op_class_0::MemWrite         1802      4.80%     99.02% # Class of committed instruction
system.switch_cpus_1.commit.op_class_0::FloatMemRead          260      0.69%     99.72% # Class of committed instruction
system.switch_cpus_1.commit.op_class_0::FloatMemWrite          106      0.28%    100.00% # Class of committed instruction
system.switch_cpus_1.commit.op_class_0::IprAccess            0      0.00%    100.00% # Class of committed instruction
system.switch_cpus_1.commit.op_class_0::InstPrefetch            0      0.00%    100.00% # Class of committed instruction
system.switch_cpus_1.commit.op_class_0::total        37503                       # Class of committed instruction
system.switch_cpus_1.commit.refs                 8342                       # Number of memory references committed
system.switch_cpus_1.commit.swp_count               0                       # Number of s/w prefetches committed
system.switch_cpus_1.commit.vec_insts               0                       # Number of committed Vector instructions.
system.switch_cpus_1.committedInsts             21342                       # Number of Instructions Simulated
system.switch_cpus_1.committedOps               37503                       # Number of Ops (including micro ops) Simulated
system.switch_cpus_1.cpi                     1.871896                       # CPI: Cycles Per Instruction
system.switch_cpus_1.cpi_total               1.871896                       # CPI: Total CPI of All Threads
system.switch_cpus_1.decode.BlockedCycles        24631                       # Number of cycles decode is blocked
system.switch_cpus_1.decode.DecodedInsts        86005                       # Number of instructions handled by decode
system.switch_cpus_1.decode.IdleCycles           2662                       # Number of cycles decode is idle
system.switch_cpus_1.decode.RunCycles            9131                       # Number of cycles decode is running
system.switch_cpus_1.decode.SquashCycles          814                       # Number of cycles decode is squashing
system.switch_cpus_1.decode.UnblockCycles         2156                       # Number of cycles decode is unblocking
system.switch_cpus_1.dtb.rdAccesses             10283                       # TLB accesses on read requests
system.switch_cpus_1.dtb.rdMisses                 141                       # TLB misses on read requests
system.switch_cpus_1.dtb.wrAccesses              3851                       # TLB accesses on write requests
system.switch_cpus_1.dtb.wrMisses                   0                       # TLB misses on write requests
system.switch_cpus_1.fetch.Branches             10544                       # Number of branches that fetch encountered
system.switch_cpus_1.fetch.CacheLines            4945                       # Number of cache lines fetched
system.switch_cpus_1.fetch.Cycles               37486                       # Number of cycles fetch has run and was not squashing or blocked
system.switch_cpus_1.fetch.IcacheSquashes           60                       # Number of outstanding Icache misses that were squashed
system.switch_cpus_1.fetch.IcacheWaitRetryStallCycles           38                       # Number of stall cycles due to full MSHR
system.switch_cpus_1.fetch.Insts                57338                       # Number of instructions fetch has processed
system.switch_cpus_1.fetch.MiscStallCycles            3                       # Number of cycles fetch has spent waiting on interrupts, or bad addresses, or out of MSHRs
system.switch_cpus_1.fetch.SquashCycles          1628                       # Number of cycles fetch has spent squashing
system.switch_cpus_1.fetch.branchRate        0.263930                       # Number of branch fetches per cycle
system.switch_cpus_1.fetch.icacheStallCycles         1070                       # Number of cycles fetch is stalled on an Icache miss
system.switch_cpus_1.fetch.predictedBranches         1854                       # Number of branches that fetch has predicted taken
system.switch_cpus_1.fetch.rate              1.435244                       # Number of inst fetches per cycle
system.switch_cpus_1.fetch.rateDist::samples        39411                       # Number of instructions fetched each cycle (Total)
system.switch_cpus_1.fetch.rateDist::mean     2.562787                       # Number of instructions fetched each cycle (Total)
system.switch_cpus_1.fetch.rateDist::stdev     3.486522                       # Number of instructions fetched each cycle (Total)
system.switch_cpus_1.fetch.rateDist::underflows            0      0.00%      0.00% # Number of instructions fetched each cycle (Total)
system.switch_cpus_1.fetch.rateDist::0          24129     61.22%     61.22% # Number of instructions fetched each cycle (Total)
system.switch_cpus_1.fetch.rateDist::1            389      0.99%     62.21% # Number of instructions fetched each cycle (Total)
system.switch_cpus_1.fetch.rateDist::2            771      1.96%     64.17% # Number of instructions fetched each cycle (Total)
system.switch_cpus_1.fetch.rateDist::3           1001      2.54%     66.71% # Number of instructions fetched each cycle (Total)
system.switch_cpus_1.fetch.rateDist::4           1115      2.83%     69.54% # Number of instructions fetched each cycle (Total)
system.switch_cpus_1.fetch.rateDist::5            689      1.75%     71.28% # Number of instructions fetched each cycle (Total)
system.switch_cpus_1.fetch.rateDist::6            834      2.12%     73.40% # Number of instructions fetched each cycle (Total)
system.switch_cpus_1.fetch.rateDist::7            705      1.79%     75.19% # Number of instructions fetched each cycle (Total)
system.switch_cpus_1.fetch.rateDist::8           9778     24.81%    100.00% # Number of instructions fetched each cycle (Total)
system.switch_cpus_1.fetch.rateDist::overflows            0      0.00%    100.00% # Number of instructions fetched each cycle (Total)
system.switch_cpus_1.fetch.rateDist::min_value            0                       # Number of instructions fetched each cycle (Total)
system.switch_cpus_1.fetch.rateDist::max_value            8                       # Number of instructions fetched each cycle (Total)
system.switch_cpus_1.fetch.rateDist::total        39411                       # Number of instructions fetched each cycle (Total)
system.switch_cpus_1.fp_regfile_reads            2663                       # number of floating regfile reads
system.switch_cpus_1.fp_regfile_writes           1336                       # number of floating regfile writes
system.switch_cpus_1.idleCycles                   539                       # Total number of cycles that the CPU has spent unscheduled due to idling
system.switch_cpus_1.iew.branchMispredicts          998                       # Number of branch mispredicts detected at execute
system.switch_cpus_1.iew.exec_branches           5175                       # Number of branches executed
system.switch_cpus_1.iew.exec_nop                   0                       # number of nop insts executed
system.switch_cpus_1.iew.exec_rate           1.485732                       # Inst execution rate
system.switch_cpus_1.iew.exec_refs              14110                       # number of memory reference insts executed
system.switch_cpus_1.iew.exec_stores             3851                       # Number of stores executed
system.switch_cpus_1.iew.exec_swp                   0                       # number of swp insts executed
system.switch_cpus_1.iew.iewBlockCycles         16654                       # Number of cycles IEW is blocking
system.switch_cpus_1.iew.iewDispLoadInsts        12054                       # Number of dispatched load instructions
system.switch_cpus_1.iew.iewDispNonSpecInsts            0                       # Number of dispatched non-speculative instructions
system.switch_cpus_1.iew.iewDispSquashedInsts            1                       # Number of squashed instructions skipped by dispatch
system.switch_cpus_1.iew.iewDispStoreInsts         4564                       # Number of dispatched store instructions
system.switch_cpus_1.iew.iewDispatchedInsts        72689                       # Number of instructions dispatched to IQ
system.switch_cpus_1.iew.iewExecLoadInsts        10259                       # Number of load instructions executed
system.switch_cpus_1.iew.iewExecSquashedInsts         2102                       # Number of squashed instructions skipped in execute
system.switch_cpus_1.iew.iewExecutedInsts        59355                       # Number of executed instructions
system.switch_cpus_1.iew.iewIQFullEvents           69                       # Number of times the IQ has become full, causing a stall
system.switch_cpus_1.iew.iewIdleCycles              0                       # Number of cycles IEW is idle
system.switch_cpus_1.iew.iewLSQFullEvents          181                       # Number of times the LSQ has become full, causing a stall
system.switch_cpus_1.iew.iewSquashCycles          814                       # Number of cycles IEW is squashing
system.switch_cpus_1.iew.iewUnblockCycles          280                       # Number of cycles IEW is unblocking
system.switch_cpus_1.iew.lsq.thread0.blockedLoads            0                       # Number of blocked loads due to partial load-store forwarding
system.switch_cpus_1.iew.lsq.thread0.cacheBlocked            1                       # Number of times an access to memory failed due to the cache being blocked
system.switch_cpus_1.iew.lsq.thread0.forwLoads          731                       # Number of loads that had data forwarded from stores
system.switch_cpus_1.iew.lsq.thread0.ignoredResponses            9                       # Number of memory responses ignored because the instruction is squashed
system.switch_cpus_1.iew.lsq.thread0.invAddrLoads            0                       # Number of loads ignored due to an invalid address
system.switch_cpus_1.iew.lsq.thread0.invAddrSwpfs            0                       # Number of software prefetches ignored due to an invalid address
system.switch_cpus_1.iew.lsq.thread0.memOrderViolation            8                       # Number of memory ordering violations
system.switch_cpus_1.iew.lsq.thread0.rescheduledLoads            1                       # Number of loads that were rescheduled
system.switch_cpus_1.iew.lsq.thread0.squashedLoads         5609                       # Number of loads squashed
system.switch_cpus_1.iew.lsq.thread0.squashedStores         2652                       # Number of stores squashed
system.switch_cpus_1.iew.memOrderViolationEvents            8                       # Number of memory order violations
system.switch_cpus_1.iew.predictedNotTakenIncorrect          964                       # Number of branches that were predicted not taken incorrectly
system.switch_cpus_1.iew.predictedTakenIncorrect           34                       # Number of branches that were predicted taken incorrectly
system.switch_cpus_1.iew.wb_consumers           77931                       # num instructions consuming a value
system.switch_cpus_1.iew.wb_count               58533                       # cumulative count of insts written-back
system.switch_cpus_1.iew.wb_fanout           0.572904                       # average fanout of values written-back
system.switch_cpus_1.iew.wb_producers           44647                       # num instructions producing a value
system.switch_cpus_1.iew.wb_rate             1.465156                       # insts written-back per cycle
system.switch_cpus_1.iew.wb_sent                59134                       # cumulative count of insts sent to commit
system.switch_cpus_1.int_regfile_reads          86033                       # number of integer regfile reads
system.switch_cpus_1.int_regfile_writes         49327                       # number of integer regfile writes
system.switch_cpus_1.ipc                     0.534218                       # IPC: Instructions Per Cycle
system.switch_cpus_1.ipc_total               0.534218                       # IPC: Total IPC of All Threads
system.switch_cpus_1.iq.FU_type_0::No_OpClass          580      0.94%      0.94% # Type of FU issued
system.switch_cpus_1.iq.FU_type_0::IntAlu        44255     72.01%     72.95% # Type of FU issued
system.switch_cpus_1.iq.FU_type_0::IntMult            0      0.00%     72.95% # Type of FU issued
system.switch_cpus_1.iq.FU_type_0::IntDiv          526      0.86%     73.81% # Type of FU issued
system.switch_cpus_1.iq.FU_type_0::FloatAdd           47      0.08%     73.89% # Type of FU issued
system.switch_cpus_1.iq.FU_type_0::FloatCmp            0      0.00%     73.89% # Type of FU issued
system.switch_cpus_1.iq.FU_type_0::FloatCvt            0      0.00%     73.89% # Type of FU issued
system.switch_cpus_1.iq.FU_type_0::FloatMult            0      0.00%     73.89% # Type of FU issued
system.switch_cpus_1.iq.FU_type_0::FloatMultAcc            0      0.00%     73.89% # Type of FU issued
system.switch_cpus_1.iq.FU_type_0::FloatDiv            0      0.00%     73.89% # Type of FU issued
system.switch_cpus_1.iq.FU_type_0::FloatMisc            0      0.00%     73.89% # Type of FU issued
system.switch_cpus_1.iq.FU_type_0::FloatSqrt            0      0.00%     73.89% # Type of FU issued
system.switch_cpus_1.iq.FU_type_0::SimdAdd          122      0.20%     74.08% # Type of FU issued
system.switch_cpus_1.iq.FU_type_0::SimdAddAcc            0      0.00%     74.08% # Type of FU issued
system.switch_cpus_1.iq.FU_type_0::SimdAlu          528      0.86%     74.94% # Type of FU issued
system.switch_cpus_1.iq.FU_type_0::SimdCmp            0      0.00%     74.94% # Type of FU issued
system.switch_cpus_1.iq.FU_type_0::SimdCvt          252      0.41%     75.35% # Type of FU issued
system.switch_cpus_1.iq.FU_type_0::SimdMisc          120      0.20%     75.55% # Type of FU issued
system.switch_cpus_1.iq.FU_type_0::SimdMult            0      0.00%     75.55% # Type of FU issued
system.switch_cpus_1.iq.FU_type_0::SimdMultAcc            0      0.00%     75.55% # Type of FU issued
system.switch_cpus_1.iq.FU_type_0::SimdShift            0      0.00%     75.55% # Type of FU issued
system.switch_cpus_1.iq.FU_type_0::SimdShiftAcc            0      0.00%     75.55% # Type of FU issued
system.switch_cpus_1.iq.FU_type_0::SimdDiv            0      0.00%     75.55% # Type of FU issued
system.switch_cpus_1.iq.FU_type_0::SimdSqrt            0      0.00%     75.55% # Type of FU issued
system.switch_cpus_1.iq.FU_type_0::SimdFloatAdd            0      0.00%     75.55% # Type of FU issued
system.switch_cpus_1.iq.FU_type_0::SimdFloatAlu            0      0.00%     75.55% # Type of FU issued
system.switch_cpus_1.iq.FU_type_0::SimdFloatCmp            0      0.00%     75.55% # Type of FU issued
system.switch_cpus_1.iq.FU_type_0::SimdFloatCvt            0      0.00%     75.55% # Type of FU issued
system.switch_cpus_1.iq.FU_type_0::SimdFloatDiv            0      0.00%     75.55% # Type of FU issued
system.switch_cpus_1.iq.FU_type_0::SimdFloatMisc            0      0.00%     75.55% # Type of FU issued
system.switch_cpus_1.iq.FU_type_0::SimdFloatMult            0      0.00%     75.55% # Type of FU issued
system.switch_cpus_1.iq.FU_type_0::SimdFloatMultAcc            0      0.00%     75.55% # Type of FU issued
system.switch_cpus_1.iq.FU_type_0::SimdFloatSqrt            0      0.00%     75.55% # Type of FU issued
system.switch_cpus_1.iq.FU_type_0::SimdReduceAdd            0      0.00%     75.55% # Type of FU issued
system.switch_cpus_1.iq.FU_type_0::SimdReduceAlu            0      0.00%     75.55% # Type of FU issued
system.switch_cpus_1.iq.FU_type_0::SimdReduceCmp            0      0.00%     75.55% # Type of FU issued
system.switch_cpus_1.iq.FU_type_0::SimdFloatReduceAdd            0      0.00%     75.55% # Type of FU issued
system.switch_cpus_1.iq.FU_type_0::SimdFloatReduceCmp            0      0.00%     75.55% # Type of FU issued
system.switch_cpus_1.iq.FU_type_0::SimdAes            0      0.00%     75.55% # Type of FU issued
system.switch_cpus_1.iq.FU_type_0::SimdAesMix            0      0.00%     75.55% # Type of FU issued
system.switch_cpus_1.iq.FU_type_0::SimdSha1Hash            0      0.00%     75.55% # Type of FU issued
system.switch_cpus_1.iq.FU_type_0::SimdSha1Hash2            0      0.00%     75.55% # Type of FU issued
system.switch_cpus_1.iq.FU_type_0::SimdSha256Hash            0      0.00%     75.55% # Type of FU issued
system.switch_cpus_1.iq.FU_type_0::SimdSha256Hash2            0      0.00%     75.55% # Type of FU issued
system.switch_cpus_1.iq.FU_type_0::SimdShaSigma2            0      0.00%     75.55% # Type of FU issued
system.switch_cpus_1.iq.FU_type_0::SimdShaSigma3            0      0.00%     75.55% # Type of FU issued
system.switch_cpus_1.iq.FU_type_0::SimdPredAlu            0      0.00%     75.55% # Type of FU issued
system.switch_cpus_1.iq.FU_type_0::MemRead        10487     17.06%     92.61% # Type of FU issued
system.switch_cpus_1.iq.FU_type_0::MemWrite         3692      6.01%     98.62% # Type of FU issued
system.switch_cpus_1.iq.FU_type_0::FloatMemRead          477      0.78%     99.40% # Type of FU issued
system.switch_cpus_1.iq.FU_type_0::FloatMemWrite          371      0.60%    100.00% # Type of FU issued
system.switch_cpus_1.iq.FU_type_0::IprAccess            0      0.00%    100.00% # Type of FU issued
system.switch_cpus_1.iq.FU_type_0::InstPrefetch            0      0.00%    100.00% # Type of FU issued
system.switch_cpus_1.iq.FU_type_0::total        61457                       # Type of FU issued
system.switch_cpus_1.iq.fp_alu_accesses          1983                       # Number of floating point alu accesses
system.switch_cpus_1.iq.fp_inst_queue_reads         3914                       # Number of floating instruction queue reads
system.switch_cpus_1.iq.fp_inst_queue_wakeup_accesses         1779                       # Number of floating instruction queue wakeup accesses
system.switch_cpus_1.iq.fp_inst_queue_writes         3940                       # Number of floating instruction queue writes
system.switch_cpus_1.iq.fu_busy_cnt              1835                       # FU busy when requested
system.switch_cpus_1.iq.fu_busy_rate         0.029858                       # FU busy rate (busy events/executed inst)
system.switch_cpus_1.iq.fu_full::No_OpClass            0      0.00%      0.00% # attempts to use FU when none available
system.switch_cpus_1.iq.fu_full::IntAlu          1196     65.18%     65.18% # attempts to use FU when none available
system.switch_cpus_1.iq.fu_full::IntMult            0      0.00%     65.18% # attempts to use FU when none available
system.switch_cpus_1.iq.fu_full::IntDiv             0      0.00%     65.18% # attempts to use FU when none available
system.switch_cpus_1.iq.fu_full::FloatAdd            0      0.00%     65.18% # attempts to use FU when none available
system.switch_cpus_1.iq.fu_full::FloatCmp            0      0.00%     65.18% # attempts to use FU when none available
system.switch_cpus_1.iq.fu_full::FloatCvt            0      0.00%     65.18% # attempts to use FU when none available
system.switch_cpus_1.iq.fu_full::FloatMult            0      0.00%     65.18% # attempts to use FU when none available
system.switch_cpus_1.iq.fu_full::FloatMultAcc            0      0.00%     65.18% # attempts to use FU when none available
system.switch_cpus_1.iq.fu_full::FloatDiv            0      0.00%     65.18% # attempts to use FU when none available
system.switch_cpus_1.iq.fu_full::FloatMisc            0      0.00%     65.18% # attempts to use FU when none available
system.switch_cpus_1.iq.fu_full::FloatSqrt            0      0.00%     65.18% # attempts to use FU when none available
system.switch_cpus_1.iq.fu_full::SimdAdd            1      0.05%     65.23% # attempts to use FU when none available
system.switch_cpus_1.iq.fu_full::SimdAddAcc            0      0.00%     65.23% # attempts to use FU when none available
system.switch_cpus_1.iq.fu_full::SimdAlu            0      0.00%     65.23% # attempts to use FU when none available
system.switch_cpus_1.iq.fu_full::SimdCmp            0      0.00%     65.23% # attempts to use FU when none available
system.switch_cpus_1.iq.fu_full::SimdCvt           38      2.07%     67.30% # attempts to use FU when none available
system.switch_cpus_1.iq.fu_full::SimdMisc            0      0.00%     67.30% # attempts to use FU when none available
system.switch_cpus_1.iq.fu_full::SimdMult            0      0.00%     67.30% # attempts to use FU when none available
system.switch_cpus_1.iq.fu_full::SimdMultAcc            0      0.00%     67.30% # attempts to use FU when none available
system.switch_cpus_1.iq.fu_full::SimdShift            0      0.00%     67.30% # attempts to use FU when none available
system.switch_cpus_1.iq.fu_full::SimdShiftAcc            0      0.00%     67.30% # attempts to use FU when none available
system.switch_cpus_1.iq.fu_full::SimdDiv            0      0.00%     67.30% # attempts to use FU when none available
system.switch_cpus_1.iq.fu_full::SimdSqrt            0      0.00%     67.30% # attempts to use FU when none available
system.switch_cpus_1.iq.fu_full::SimdFloatAdd            0      0.00%     67.30% # attempts to use FU when none available
system.switch_cpus_1.iq.fu_full::SimdFloatAlu            0      0.00%     67.30% # attempts to use FU when none available
system.switch_cpus_1.iq.fu_full::SimdFloatCmp            0      0.00%     67.30% # attempts to use FU when none available
system.switch_cpus_1.iq.fu_full::SimdFloatCvt            0      0.00%     67.30% # attempts to use FU when none available
system.switch_cpus_1.iq.fu_full::SimdFloatDiv            0      0.00%     67.30% # attempts to use FU when none available
system.switch_cpus_1.iq.fu_full::SimdFloatMisc            0      0.00%     67.30% # attempts to use FU when none available
system.switch_cpus_1.iq.fu_full::SimdFloatMult            0      0.00%     67.30% # attempts to use FU when none available
system.switch_cpus_1.iq.fu_full::SimdFloatMultAcc            0      0.00%     67.30% # attempts to use FU when none available
system.switch_cpus_1.iq.fu_full::SimdFloatSqrt            0      0.00%     67.30% # attempts to use FU when none available
system.switch_cpus_1.iq.fu_full::SimdReduceAdd            0      0.00%     67.30% # attempts to use FU when none available
system.switch_cpus_1.iq.fu_full::SimdReduceAlu            0      0.00%     67.30% # attempts to use FU when none available
system.switch_cpus_1.iq.fu_full::SimdReduceCmp            0      0.00%     67.30% # attempts to use FU when none available
system.switch_cpus_1.iq.fu_full::SimdFloatReduceAdd            0      0.00%     67.30% # attempts to use FU when none available
system.switch_cpus_1.iq.fu_full::SimdFloatReduceCmp            0      0.00%     67.30% # attempts to use FU when none available
system.switch_cpus_1.iq.fu_full::SimdAes            0      0.00%     67.30% # attempts to use FU when none available
system.switch_cpus_1.iq.fu_full::SimdAesMix            0      0.00%     67.30% # attempts to use FU when none available
system.switch_cpus_1.iq.fu_full::SimdSha1Hash            0      0.00%     67.30% # attempts to use FU when none available
system.switch_cpus_1.iq.fu_full::SimdSha1Hash2            0      0.00%     67.30% # attempts to use FU when none available
system.switch_cpus_1.iq.fu_full::SimdSha256Hash            0      0.00%     67.30% # attempts to use FU when none available
system.switch_cpus_1.iq.fu_full::SimdSha256Hash2            0      0.00%     67.30% # attempts to use FU when none available
system.switch_cpus_1.iq.fu_full::SimdShaSigma2            0      0.00%     67.30% # attempts to use FU when none available
system.switch_cpus_1.iq.fu_full::SimdShaSigma3            0      0.00%     67.30% # attempts to use FU when none available
system.switch_cpus_1.iq.fu_full::SimdPredAlu            0      0.00%     67.30% # attempts to use FU when none available
system.switch_cpus_1.iq.fu_full::MemRead          462     25.18%     92.48% # attempts to use FU when none available
system.switch_cpus_1.iq.fu_full::MemWrite          111      6.05%     98.53% # attempts to use FU when none available
system.switch_cpus_1.iq.fu_full::FloatMemRead           18      0.98%     99.51% # attempts to use FU when none available
system.switch_cpus_1.iq.fu_full::FloatMemWrite            9      0.49%    100.00% # attempts to use FU when none available
system.switch_cpus_1.iq.fu_full::IprAccess            0      0.00%    100.00% # attempts to use FU when none available
system.switch_cpus_1.iq.fu_full::InstPrefetch            0      0.00%    100.00% # attempts to use FU when none available
system.switch_cpus_1.iq.int_alu_accesses        60729                       # Number of integer alu accesses
system.switch_cpus_1.iq.int_inst_queue_reads       160892                       # Number of integer instruction queue reads
system.switch_cpus_1.iq.int_inst_queue_wakeup_accesses        56754                       # Number of integer instruction queue wakeup accesses
system.switch_cpus_1.iq.int_inst_queue_writes       103838                       # Number of integer instruction queue writes
system.switch_cpus_1.iq.iqInstsAdded            72689                       # Number of instructions added to the IQ (excludes non-spec)
system.switch_cpus_1.iq.iqInstsIssued           61457                       # Number of instructions issued
system.switch_cpus_1.iq.iqSquashedInstsExamined        35081                       # Number of squashed instructions iterated over during squash; mainly for profiling
system.switch_cpus_1.iq.iqSquashedInstsIssued          646                       # Number of squashed instructions issued
system.switch_cpus_1.iq.iqSquashedOperandsExamined        49285                       # Number of squashed operands that are examined and possibly removed from graph
system.switch_cpus_1.iq.issued_per_cycle::samples        39411                       # Number of insts issued each cycle
system.switch_cpus_1.iq.issued_per_cycle::mean     1.559387                       # Number of insts issued each cycle
system.switch_cpus_1.iq.issued_per_cycle::stdev     2.539741                       # Number of insts issued each cycle
system.switch_cpus_1.iq.issued_per_cycle::underflows            0      0.00%      0.00% # Number of insts issued each cycle
system.switch_cpus_1.iq.issued_per_cycle::0        26015     66.01%     66.01% # Number of insts issued each cycle
system.switch_cpus_1.iq.issued_per_cycle::1         1477      3.75%     69.76% # Number of insts issued each cycle
system.switch_cpus_1.iq.issued_per_cycle::2         1896      4.81%     74.57% # Number of insts issued each cycle
system.switch_cpus_1.iq.issued_per_cycle::3         1335      3.39%     77.96% # Number of insts issued each cycle
system.switch_cpus_1.iq.issued_per_cycle::4         1506      3.82%     81.78% # Number of insts issued each cycle
system.switch_cpus_1.iq.issued_per_cycle::5         1678      4.26%     86.03% # Number of insts issued each cycle
system.switch_cpus_1.iq.issued_per_cycle::6         2304      5.85%     91.88% # Number of insts issued each cycle
system.switch_cpus_1.iq.issued_per_cycle::7         1655      4.20%     96.08% # Number of insts issued each cycle
system.switch_cpus_1.iq.issued_per_cycle::8         1545      3.92%    100.00% # Number of insts issued each cycle
system.switch_cpus_1.iq.issued_per_cycle::overflows            0      0.00%    100.00% # Number of insts issued each cycle
system.switch_cpus_1.iq.issued_per_cycle::min_value            0                       # Number of insts issued each cycle
system.switch_cpus_1.iq.issued_per_cycle::max_value            8                       # Number of insts issued each cycle
system.switch_cpus_1.iq.issued_per_cycle::total        39411                       # Number of insts issued each cycle
system.switch_cpus_1.iq.rate                 1.538348                       # Inst issue rate
system.switch_cpus_1.iq.vec_alu_accesses            0                       # Number of vector alu accesses
system.switch_cpus_1.iq.vec_inst_queue_reads            0                       # Number of vector instruction queue reads
system.switch_cpus_1.iq.vec_inst_queue_wakeup_accesses            0                       # Number of vector instruction queue wakeup accesses
system.switch_cpus_1.iq.vec_inst_queue_writes            0                       # Number of vector instruction queue writes
system.switch_cpus_1.itb.rdAccesses                 0                       # TLB accesses on read requests
system.switch_cpus_1.itb.rdMisses                   0                       # TLB misses on read requests
system.switch_cpus_1.itb.wrAccesses              4945                       # TLB accesses on write requests
system.switch_cpus_1.itb.wrMisses                   8                       # TLB misses on write requests
system.switch_cpus_1.memDep0.conflictingLoads          269                       # Number of conflicting loads.
system.switch_cpus_1.memDep0.conflictingStores           87                       # Number of conflicting stores.
system.switch_cpus_1.memDep0.insertedLoads        12054                       # Number of loads inserted to the mem dependence unit.
system.switch_cpus_1.memDep0.insertedStores         4564                       # Number of stores inserted to the mem dependence unit.
system.switch_cpus_1.misc_regfile_reads         26738                       # number of misc regfile reads
system.switch_cpus_1.numCycles                  39950                       # number of cpu cycles simulated
system.switch_cpus_1.numWorkItemsCompleted            0                       # number of work items this cpu completed
system.switch_cpus_1.numWorkItemsStarted            0                       # number of work items this cpu started
system.switch_cpus_1.rename.BlockCycles         22229                       # Number of cycles rename is blocking
system.switch_cpus_1.rename.CommittedMaps        48154                       # Number of HB maps that are committed
system.switch_cpus_1.rename.IQFullEvents         1283                       # Number of times rename has blocked due to IQ full
system.switch_cpus_1.rename.IdleCycles           3602                       # Number of cycles rename is idle
system.switch_cpus_1.rename.LQFullEvents          748                       # Number of times rename has blocked due to LQ full
system.switch_cpus_1.rename.ROBFullEvents          170                       # Number of times rename has blocked due to ROB full
system.switch_cpus_1.rename.RenameLookups       217087                       # Number of register rename lookups that rename has made
system.switch_cpus_1.rename.RenamedInsts        81177                       # Number of instructions processed by rename
system.switch_cpus_1.rename.RenamedOperands       100315                       # Number of destination operands rename has renamed
system.switch_cpus_1.rename.RunCycles           10187                       # Number of cycles rename is running
system.switch_cpus_1.rename.SQFullEvents          114                       # Number of times rename has blocked due to SQ full
system.switch_cpus_1.rename.SquashCycles          814                       # Number of cycles rename is squashing
system.switch_cpus_1.rename.UnblockCycles         2563                       # Number of cycles rename is unblocking
system.switch_cpus_1.rename.UndoneMaps          52020                       # Number of HB maps that are undone due to squashing
system.switch_cpus_1.rename.fp_rename_lookups         3902                       # Number of floating rename lookups
system.switch_cpus_1.rename.int_rename_lookups       124880                       # Number of integer rename lookups
system.switch_cpus_1.rename.serializeStallCycles            0                       # count of cycles rename stalled for serializing inst
system.switch_cpus_1.rename.serializingInsts            0                       # count of serializing insts renamed
system.switch_cpus_1.rename.skidInsts            6096                       # count of insts added to the skid buffer
system.switch_cpus_1.rename.tempSerializingInsts            0                       # count of temporary serializing insts renamed
system.switch_cpus_1.rob.rob_reads             104102                       # The number of ROB reads
system.switch_cpus_1.rob.rob_writes            150363                       # The number of ROB writes
system.switch_cpus_1.timesIdled                     6                       # Number of times that the entire CPU went into an idle state and unscheduled itself
system.tol2bus.snoop_filter.hit_multi_requests            0                       # Number of requests hitting in the snoop filter with multiple (>1) holders of the requested data.
system.tol2bus.snoop_filter.hit_multi_snoops            0                       # Number of snoops hitting in the snoop filter with multiple (>1) holders of the requested data.
system.tol2bus.snoop_filter.hit_single_requests          201                       # Number of requests hitting in the snoop filter with a single holder of the requested data.
system.tol2bus.snoop_filter.hit_single_snoops            2                       # Number of snoops hitting in the snoop filter with a single holder of the requested data.
system.tol2bus.snoop_filter.tot_requests          415                       # Total number of requests made to the snoop filter.
system.tol2bus.snoop_filter.tot_snoops              2                       # Total number of snoops made to the snoop filter.
system.tol3bus.snoop_filter.hit_multi_requests            0                       # Number of requests hitting in the snoop filter with multiple (>1) holders of the requested data.
system.tol3bus.snoop_filter.hit_multi_snoops            0                       # Number of snoops hitting in the snoop filter with multiple (>1) holders of the requested data.
system.tol3bus.snoop_filter.hit_single_requests            0                       # Number of requests hitting in the snoop filter with a single holder of the requested data.
system.tol3bus.snoop_filter.hit_single_snoops            0                       # Number of snoops hitting in the snoop filter with a single holder of the requested data.
system.tol3bus.snoop_filter.tot_requests          193                       # Total number of requests made to the snoop filter.
system.tol3bus.snoop_filter.tot_snoops              0                       # Total number of snoops made to the snoop filter.
system.membus.trans_dist::ReadResp                190                       # Transaction distribution
system.membus.trans_dist::ReadExReq                 2                       # Transaction distribution
system.membus.trans_dist::ReadExResp                2                       # Transaction distribution
system.membus.trans_dist::ReadSharedReq           190                       # Transaction distribution
system.membus.pkt_count_system.l3.mem_side::system.mem_ctrls.port          384                       # Packet count per connected master and slave (bytes)
system.membus.pkt_count_system.l3.mem_side::total          384                       # Packet count per connected master and slave (bytes)
system.membus.pkt_count::total                    384                       # Packet count per connected master and slave (bytes)
system.membus.pkt_size_system.l3.mem_side::system.mem_ctrls.port        12288                       # Cumulative packet size per connected master and slave (bytes)
system.membus.pkt_size_system.l3.mem_side::total        12288                       # Cumulative packet size per connected master and slave (bytes)
system.membus.pkt_size::total                   12288                       # Cumulative packet size per connected master and slave (bytes)
system.membus.snoops                                0                       # Total snoops (count)
system.membus.snoopTraffic                          0                       # Total snoop traffic (bytes)
system.membus.snoop_fanout::samples               192                       # Request fanout histogram
system.membus.snoop_fanout::mean                    0                       # Request fanout histogram
system.membus.snoop_fanout::stdev                   0                       # Request fanout histogram
system.membus.snoop_fanout::underflows              0      0.00%      0.00% # Request fanout histogram
system.membus.snoop_fanout::0                     192    100.00%    100.00% # Request fanout histogram
system.membus.snoop_fanout::1                       0      0.00%    100.00% # Request fanout histogram
system.membus.snoop_fanout::overflows               0      0.00%    100.00% # Request fanout histogram
system.membus.snoop_fanout::min_value               0                       # Request fanout histogram
system.membus.snoop_fanout::max_value               0                       # Request fanout histogram
system.membus.snoop_fanout::total                 192                       # Request fanout histogram
system.membus.reqLayer2.occupancy              236500                       # Layer occupancy (ticks)
system.membus.reqLayer2.utilization               1.2                       # Layer utilization (%)
system.membus.respLayer1.occupancy            1032000                       # Layer occupancy (ticks)
system.membus.respLayer1.utilization              5.2                       # Layer utilization (%)
system.membus.power_state.pwrStateResidencyTicks::UNDEFINED    300554000                       # Cumulative time (in ticks) in various power states
system.switch_cpus_1.dtb.walker.power_state.pwrStateResidencyTicks::UNDEFINED    300554000                       # Cumulative time (in ticks) in various power states
system.switch_cpus_1.itb.walker.power_state.pwrStateResidencyTicks::UNDEFINED    300554000                       # Cumulative time (in ticks) in various power states
system.switch_cpus_1.power_state.pwrStateResidencyTicks::OFF    300554000                       # Cumulative time (in ticks) in various power states
system.switch_cpus.dtb.walker.power_state.pwrStateResidencyTicks::UNDEFINED    300554000                       # Cumulative time (in ticks) in various power states
system.switch_cpus.itb.walker.power_state.pwrStateResidencyTicks::UNDEFINED    300554000                       # Cumulative time (in ticks) in various power states
system.switch_cpus.power_state.numTransitions            1                       # Number of power state transitions
system.switch_cpus.power_state.pwrStateResidencyTicks::OFF    300554000                       # Cumulative time (in ticks) in various power states
system.tol2bus.trans_dist::ReadResp               209                       # Transaction distribution
system.tol2bus.trans_dist::WritebackDirty           43                       # Transaction distribution
system.tol2bus.trans_dist::WritebackClean           25                       # Transaction distribution
system.tol2bus.trans_dist::CleanEvict             135                       # Transaction distribution
system.tol2bus.trans_dist::ReadExReq                4                       # Transaction distribution
system.tol2bus.trans_dist::ReadExResp               4                       # Transaction distribution
system.tol2bus.trans_dist::ReadCleanReq            37                       # Transaction distribution
system.tol2bus.trans_dist::ReadSharedReq          173                       # Transaction distribution
system.tol2bus.pkt_count_system.cpu.icache.mem_side::system.l2.cpu_side           99                       # Packet count per connected master and slave (bytes)
system.tol2bus.pkt_count_system.cpu.dcache.mem_side::system.l2.cpu_side          529                       # Packet count per connected master and slave (bytes)
system.tol2bus.pkt_count::total                   628                       # Packet count per connected master and slave (bytes)
system.tol2bus.pkt_size_system.cpu.icache.mem_side::system.l2.cpu_side         3968                       # Cumulative packet size per connected master and slave (bytes)
system.tol2bus.pkt_size_system.cpu.dcache.mem_side::system.l2.cpu_side        14016                       # Cumulative packet size per connected master and slave (bytes)
system.tol2bus.pkt_size::total                  17984                       # Cumulative packet size per connected master and slave (bytes)
system.tol2bus.snoops                               2                       # Total snoops (count)
system.tol2bus.snoopTraffic                         0                       # Total snoop traffic (bytes)
system.tol2bus.snoop_fanout::samples              216                       # Request fanout histogram
system.tol2bus.snoop_fanout::mean            0.009259                       # Request fanout histogram
system.tol2bus.snoop_fanout::stdev           0.096001                       # Request fanout histogram
system.tol2bus.snoop_fanout::underflows             0      0.00%      0.00% # Request fanout histogram
system.tol2bus.snoop_fanout::0                    214     99.07%     99.07% # Request fanout histogram
system.tol2bus.snoop_fanout::1                      2      0.93%    100.00% # Request fanout histogram
system.tol2bus.snoop_fanout::2                      0      0.00%    100.00% # Request fanout histogram
system.tol2bus.snoop_fanout::3                      0      0.00%    100.00% # Request fanout histogram
system.tol2bus.snoop_fanout::4                      0      0.00%    100.00% # Request fanout histogram
system.tol2bus.snoop_fanout::overflows              0      0.00%    100.00% # Request fanout histogram
system.tol2bus.snoop_fanout::min_value              0                       # Request fanout histogram
system.tol2bus.snoop_fanout::max_value              1                       # Request fanout histogram
system.tol2bus.snoop_fanout::total                216                       # Request fanout histogram
system.tol2bus.reqLayer0.occupancy             275500                       # Layer occupancy (ticks)
system.tol2bus.reqLayer0.utilization              1.4                       # Layer utilization (%)
system.tol2bus.respLayer1.occupancy            264000                       # Layer occupancy (ticks)
system.tol2bus.respLayer1.utilization             1.3                       # Layer utilization (%)
system.tol2bus.respLayer0.occupancy             55500                       # Layer occupancy (ticks)
system.tol2bus.respLayer0.utilization             0.3                       # Layer utilization (%)
system.tol2bus.power_state.pwrStateResidencyTicks::UNDEFINED    300554000                       # Cumulative time (in ticks) in various power states
system.voltage_domain.voltage                       1                       # Voltage in Volts
system.clk_domain.clock                          1000                       # Clock period in ticks
system.l2.demand_hits::.switch_cpus_1.data           21                       # number of demand (read+write) hits
system.l2.demand_hits::total                       21                       # number of demand (read+write) hits
system.l2.overall_hits::.switch_cpus_1.data           21                       # number of overall hits
system.l2.overall_hits::total                      21                       # number of overall hits
system.l2.demand_misses::.switch_cpus_1.inst           37                       # number of demand (read+write) misses
system.l2.demand_misses::.switch_cpus_1.data          156                       # number of demand (read+write) misses
system.l2.demand_misses::total                    193                       # number of demand (read+write) misses
system.l2.overall_misses::.switch_cpus_1.inst           37                       # number of overall misses
system.l2.overall_misses::.switch_cpus_1.data          156                       # number of overall misses
system.l2.overall_misses::total                   193                       # number of overall misses
system.l2.demand_miss_latency::.switch_cpus_1.inst      3112500                       # number of demand (read+write) miss cycles
system.l2.demand_miss_latency::.switch_cpus_1.data     14495500                       # number of demand (read+write) miss cycles
system.l2.demand_miss_latency::total         17608000                       # number of demand (read+write) miss cycles
system.l2.overall_miss_latency::.switch_cpus_1.inst      3112500                       # number of overall miss cycles
system.l2.overall_miss_latency::.switch_cpus_1.data     14495500                       # number of overall miss cycles
system.l2.overall_miss_latency::total        17608000                       # number of overall miss cycles
system.l2.demand_accesses::.switch_cpus_1.inst           37                       # number of demand (read+write) accesses
system.l2.demand_accesses::.switch_cpus_1.data          177                       # number of demand (read+write) accesses
system.l2.demand_accesses::total                  214                       # number of demand (read+write) accesses
system.l2.overall_accesses::.switch_cpus_1.inst           37                       # number of overall (read+write) accesses
system.l2.overall_accesses::.switch_cpus_1.data          177                       # number of overall (read+write) accesses
system.l2.overall_accesses::total                 214                       # number of overall (read+write) accesses
system.l2.demand_miss_rate::.switch_cpus_1.inst            1                       # miss rate for demand accesses
system.l2.demand_miss_rate::.switch_cpus_1.data     0.881356                       # miss rate for demand accesses
system.l2.demand_miss_rate::total            0.901869                       # miss rate for demand accesses
system.l2.overall_miss_rate::.switch_cpus_1.inst            1                       # miss rate for overall accesses
system.l2.overall_miss_rate::.switch_cpus_1.data     0.881356                       # miss rate for overall accesses
system.l2.overall_miss_rate::total           0.901869                       # miss rate for overall accesses
system.l2.demand_avg_miss_latency::.switch_cpus_1.inst 84121.621622                       # average overall miss latency
system.l2.demand_avg_miss_latency::.switch_cpus_1.data 92919.871795                       # average overall miss latency
system.l2.demand_avg_miss_latency::total 91233.160622                       # average overall miss latency
system.l2.overall_avg_miss_latency::.switch_cpus_1.inst 84121.621622                       # average overall miss latency
system.l2.overall_avg_miss_latency::.switch_cpus_1.data 92919.871795                       # average overall miss latency
system.l2.overall_avg_miss_latency::total 91233.160622                       # average overall miss latency
system.l2.blocked_cycles::no_mshrs                  0                       # number of cycles access was blocked
[...]
system.cpu.dcache.demand_hits::.switch_cpus_1.data        11023                       # number of demand (read+write) hits
system.cpu.dcache.demand_hits::total            45451                       # number of demand (read+write) hits
system.cpu.dcache.overall_hits::.switch_cpus.data        34428                       # number of overall hits
system.cpu.dcache.overall_hits::.switch_cpus_1.data        11023                       # number of overall hits
system.cpu.dcache.overall_hits::total           45451                       # number of overall hits
system.cpu.dcache.demand_misses::.switch_cpus.data         1779                       # number of demand (read+write) misses
system.cpu.dcache.demand_misses::.switch_cpus_1.data          345                       # number of demand (read+write) misses
system.cpu.dcache.demand_misses::total           2124                       # number of demand (read+write) misses
system.cpu.dcache.overall_misses::.switch_cpus.data         1779                       # number of overall misses
system.cpu.dcache.overall_misses::.switch_cpus_1.data          345                       # number of overall misses
system.cpu.dcache.overall_misses::total          2124                       # number of overall misses
system.cpu.dcache.demand_miss_latency::.switch_cpus.data    145593000                       # number of demand (read+write) miss cycles
system.cpu.dcache.demand_miss_latency::.switch_cpus_1.data     29419000                       # number of demand (read+write) miss cycles
system.cpu.dcache.demand_miss_latency::total    175012000                       # number of demand (read+write) miss cycles
system.cpu.dcache.overall_miss_latency::.switch_cpus.data    145593000                       # number of overall miss cycles
system.cpu.dcache.overall_miss_latency::.switch_cpus_1.data     29419000                       # number of overall miss cycles
system.cpu.dcache.overall_miss_latency::total    175012000                       # number of overall miss cycles
system.cpu.dcache.demand_accesses::.switch_cpus.data        36207                       # number of demand (read+write) accesses
system.cpu.dcache.demand_accesses::.switch_cpus_1.data        11368                       # number of demand (read+write) accesses
system.cpu.dcache.demand_accesses::total        47575                       # number of demand (read+write) accesses
system.cpu.dcache.overall_accesses::.switch_cpus.data        36207                       # number of overall (read+write) accesses
system.cpu.dcache.overall_accesses::.switch_cpus_1.data        11368                       # number of overall (read+write) accesses
system.cpu.dcache.overall_accesses::total        47575                       # number of overall (read+write) accesses
system.cpu.dcache.demand_miss_rate::.switch_cpus.data     0.049134                       # miss rate for demand accesses
system.cpu.dcache.demand_miss_rate::.switch_cpus_1.data     0.030348                       # miss rate for demand accesses
system.cpu.dcache.demand_miss_rate::total     0.044645                       # miss rate for demand accesses
system.cpu.dcache.overall_miss_rate::.switch_cpus.data     0.049134                       # miss rate for overall accesses
system.cpu.dcache.overall_miss_rate::.switch_cpus_1.data     0.030348                       # miss rate for overall accesses
system.cpu.dcache.overall_miss_rate::total     0.044645                       # miss rate for overall accesses
system.cpu.dcache.demand_avg_miss_latency::.switch_cpus.data 81839.797639                       # average overall miss latency
system.cpu.dcache.demand_avg_miss_latency::.switch_cpus_1.data 85272.463768                       # average overall miss latency
system.cpu.dcache.demand_avg_miss_latency::total 82397.363465                       # average overall miss latency
system.cpu.dcache.overall_avg_miss_latency::.switch_cpus.data 81839.797639                       # average overall miss latency
system.cpu.dcache.overall_avg_miss_latency::.switch_cpus_1.data 85272.463768                       # average overall miss latency
system.cpu.dcache.overall_avg_miss_latency::total 82397.363465                       # average overall miss latency
system.cpu.dcache.blocked_cycles::no_mshrs          117                       # number of cycles access was blocked
system.cpu.dcache.blocked_cycles::no_targets            0                       # number of cycles access was blocked
system.cpu.dcache.blocked::no_mshrs                 1                       # number of cycles access was blocked
system.cpu.dcache.blocked::no_targets               0                       # number of cycles access was blocked
system.cpu.dcache.avg_blocked_cycles::no_mshrs          117                       # average number of cycles each access was blocked
system.cpu.dcache.avg_blocked_cycles::no_targets          nan                       # average number of cycles each access was blocked
system.cpu.dcache.writebacks::.writebacks          638                       # number of writebacks
system.cpu.dcache.writebacks::total               638                       # number of writebacks
system.cpu.dcache.demand_mshr_hits::.switch_cpus_1.data          168                       # number of demand (read+write) MSHR hits
system.cpu.dcache.demand_mshr_hits::total          168                       # number of demand (read+write) MSHR hits
system.cpu.dcache.overall_mshr_hits::.switch_cpus_1.data          168                       # number of overall MSHR hits
system.cpu.dcache.overall_mshr_hits::total          168                       # number of overall MSHR hits
system.cpu.dcache.demand_mshr_misses::.switch_cpus.data         1779                       # number of demand (read+write) MSHR misses
system.cpu.dcache.demand_mshr_misses::.switch_cpus_1.data          177                       # number of demand (read+write) MSHR misses
system.cpu.dcache.demand_mshr_misses::total         1956                       # number of demand (read+write) MSHR misses
system.cpu.dcache.overall_mshr_misses::.switch_cpus.data         1779                       # number of overall MSHR misses
system.cpu.dcache.overall_mshr_misses::.switch_cpus_1.data          177                       # number of overall MSHR misses
system.cpu.dcache.overall_mshr_misses::total         1956                       # number of overall MSHR misses
system.cpu.dcache.demand_mshr_miss_latency::.switch_cpus.data    144703500                       # number of demand (read+write) MSHR miss cycles
system.cpu.dcache.demand_mshr_miss_latency::.switch_cpus_1.data     14788500                       # number of demand (read+write) MSHR miss cycles
system.cpu.dcache.demand_mshr_miss_latency::total    159492000                       # number of demand (read+write) MSHR miss cycles
system.cpu.dcache.overall_mshr_miss_latency::.switch_cpus.data    144703500                       # number of overall MSHR miss cycles
system.cpu.dcache.overall_mshr_miss_latency::.switch_cpus_1.data     14788500                       # number of overall MSHR miss cycles
system.cpu.dcache.overall_mshr_miss_latency::total    159492000                       # number of overall MSHR miss cycles
system.cpu.dcache.demand_mshr_miss_rate::.switch_cpus.data     0.049134                       # mshr miss rate for demand accesses
system.cpu.dcache.demand_mshr_miss_rate::.switch_cpus_1.data     0.015570                       # mshr miss rate for demand accesses
system.cpu.dcache.demand_mshr_miss_rate::total     0.041114                       # mshr miss rate for demand accesses
system.cpu.dcache.overall_mshr_miss_rate::.switch_cpus.data     0.049134                       # mshr miss rate for overall accesses
system.cpu.dcache.overall_mshr_miss_rate::.switch_cpus_1.data     0.015570                       # mshr miss rate for overall accesses
system.cpu.dcache.overall_mshr_miss_rate::total     0.041114                       # mshr miss rate for overall accesses
system.cpu.dcache.demand_avg_mshr_miss_latency::.switch_cpus.data 81339.797639                       # average overall mshr miss latency
system.cpu.dcache.demand_avg_mshr_miss_latency::.switch_cpus_1.data 83550.847458                       # average overall mshr miss latency
system.cpu.dcache.demand_avg_mshr_miss_latency::total 81539.877301                       # average overall mshr miss latency
system.cpu.dcache.overall_avg_mshr_miss_latency::.switch_cpus.data 81339.797639                       # average overall mshr miss latency
system.cpu.dcache.overall_avg_mshr_miss_latency::.switch_cpus_1.data 83550.847458                       # average overall mshr miss latency
system.cpu.dcache.overall_avg_mshr_miss_latency::total 81539.877301                       # average overall mshr miss latency
system.cpu.dcache.replacements                   1443                       # number of replacements
system.cpu.dcache.ReadReq_hits::.switch_cpus.data        25542                       # number of ReadReq hits
system.cpu.dcache.ReadReq_hits::.switch_cpus_1.data         9119                       # number of ReadReq hits
system.cpu.dcache.ReadReq_hits::total           34661                       # number of ReadReq hits
system.cpu.dcache.ReadReq_misses::.switch_cpus.data         1179                       # number of ReadReq misses
system.cpu.dcache.ReadReq_misses::.switch_cpus_1.data          341                       # number of ReadReq misses
system.cpu.dcache.ReadReq_misses::total          1520                       # number of ReadReq misses
system.cpu.dcache.ReadReq_miss_latency::.switch_cpus.data     94931000                       # number of ReadReq miss cycles
system.cpu.dcache.ReadReq_miss_latency::.switch_cpus_1.data     29212000                       # number of ReadReq miss cycles
system.cpu.dcache.ReadReq_miss_latency::total    124143000                       # number of ReadReq miss cycles
system.cpu.dcache.ReadReq_accesses::.switch_cpus.data        26721                       # number of ReadReq accesses(hits+misses)
system.cpu.dcache.ReadReq_accesses::.switch_cpus_1.data         9460                       # number of ReadReq accesses(hits+misses)
system.cpu.dcache.ReadReq_accesses::total        36181                       # number of ReadReq accesses(hits+misses)
system.cpu.dcache.ReadReq_miss_rate::.switch_cpus.data     0.044123                       # miss rate for ReadReq accesses
system.cpu.dcache.ReadReq_miss_rate::.switch_cpus_1.data     0.036047                       # miss rate for ReadReq accesses
system.cpu.dcache.ReadReq_miss_rate::total     0.042011                       # miss rate for ReadReq accesses
system.cpu.dcache.ReadReq_avg_miss_latency::.switch_cpus.data 80518.235793                       # average ReadReq miss latency
system.cpu.dcache.ReadReq_avg_miss_latency::.switch_cpus_1.data 85665.689150                       # average ReadReq miss latency
system.cpu.dcache.ReadReq_avg_miss_latency::total 81673.026316                       # average ReadReq miss latency
system.cpu.dcache.ReadReq_mshr_hits::.switch_cpus_1.data          168                       # number of ReadReq MSHR hits
system.cpu.dcache.ReadReq_mshr_hits::total          168                       # number of ReadReq MSHR hits
system.cpu.dcache.ReadReq_mshr_misses::.switch_cpus.data         1179                       # number of ReadReq MSHR misses
system.cpu.dcache.ReadReq_mshr_misses::.switch_cpus_1.data          173                       # number of ReadReq MSHR misses
system.cpu.dcache.ReadReq_mshr_misses::total         1352                       # number of ReadReq MSHR misses
system.cpu.dcache.ReadReq_mshr_miss_latency::.switch_cpus.data     94341500                       # number of ReadReq MSHR miss cycles
system.cpu.dcache.ReadReq_mshr_miss_latency::.switch_cpus_1.data     14583500                       # number of ReadReq MSHR miss cycles
system.cpu.dcache.ReadReq_mshr_miss_latency::total    108925000                       # number of ReadReq MSHR miss cycles
system.cpu.dcache.ReadReq_mshr_miss_rate::.switch_cpus.data     0.044123                       # mshr miss rate for ReadReq accesses
system.cpu.dcache.ReadReq_mshr_miss_rate::.switch_cpus_1.data     0.018288                       # mshr miss rate for ReadReq accesses
system.cpu.dcache.ReadReq_mshr_miss_rate::total     0.037368                       # mshr miss rate for ReadReq accesses
system.cpu.dcache.ReadReq_avg_mshr_miss_latency::.switch_cpus.data 80018.235793                       # average ReadReq mshr miss latency
system.cpu.dcache.ReadReq_avg_mshr_miss_latency::.switch_cpus_1.data 84297.687861                       # average ReadReq mshr miss latency
system.cpu.dcache.ReadReq_avg_mshr_miss_latency::total 80565.828402                       # average ReadReq mshr miss latency
system.cpu.dcache.WriteReq_hits::.switch_cpus.data         8886                       # number of WriteReq hits
system.cpu.dcache.WriteReq_hits::.switch_cpus_1.data         1904                       # number of WriteReq hits
system.cpu.dcache.WriteReq_hits::total          10790                       # number of WriteReq hits
system.cpu.dcache.WriteReq_misses::.switch_cpus.data          600                       # number of WriteReq misses
system.cpu.dcache.WriteReq_misses::.switch_cpus_1.data            4                       # number of WriteReq misses
system.cpu.dcache.WriteReq_misses::total          604                       # number of WriteReq misses
system.cpu.dcache.WriteReq_miss_latency::.switch_cpus.data     50662000                       # number of WriteReq miss cycles
system.cpu.dcache.WriteReq_miss_latency::.switch_cpus_1.data       207000                       # number of WriteReq miss cycles
system.cpu.dcache.WriteReq_miss_latency::total     50869000                       # number of WriteReq miss cycles
system.cpu.dcache.WriteReq_accesses::.switch_cpus.data         9486                       # number of WriteReq accesses(hits+misses)
system.cpu.dcache.WriteReq_accesses::.switch_cpus_1.data         1908                       # number of WriteReq accesses(hits+misses)
system.cpu.dcache.WriteReq_accesses::total        11394                       # number of WriteReq accesses(hits+misses)
system.cpu.dcache.WriteReq_miss_rate::.switch_cpus.data     0.063251                       # miss rate for WriteReq accesses
system.cpu.dcache.WriteReq_miss_rate::.switch_cpus_1.data     0.002096                       # miss rate for WriteReq accesses
system.cpu.dcache.WriteReq_miss_rate::total     0.053010                       # miss rate for WriteReq accesses
system.cpu.dcache.WriteReq_avg_miss_latency::.switch_cpus.data 84436.666667                       # average WriteReq miss latency
system.cpu.dcache.WriteReq_avg_miss_latency::.switch_cpus_1.data        51750                       # average WriteReq miss latency
system.cpu.dcache.WriteReq_avg_miss_latency::total 84220.198675                       # average WriteReq miss latency
system.cpu.dcache.WriteReq_mshr_misses::.switch_cpus.data          600                       # number of WriteReq MSHR misses
system.cpu.dcache.WriteReq_mshr_misses::.switch_cpus_1.data            4                       # number of WriteReq MSHR misses
system.cpu.dcache.WriteReq_mshr_misses::total          604                       # number of WriteReq MSHR misses
system.cpu.dcache.WriteReq_mshr_miss_latency::.switch_cpus.data     50362000                       # number of WriteReq MSHR miss cycles
system.cpu.dcache.WriteReq_mshr_miss_latency::.switch_cpus_1.data       205000                       # number of WriteReq MSHR miss cycles
system.cpu.dcache.WriteReq_mshr_miss_latency::total     50567000                       # number of WriteReq MSHR miss cycles
system.cpu.dcache.WriteReq_mshr_miss_rate::.switch_cpus.data     0.063251                       # mshr miss rate for WriteReq accesses
system.cpu.dcache.WriteReq_mshr_miss_rate::.switch_cpus_1.data     0.002096                       # mshr miss rate for WriteReq accesses
system.cpu.dcache.WriteReq_mshr_miss_rate::total     0.053010                       # mshr miss rate for WriteReq accesses
system.cpu.dcache.WriteReq_avg_mshr_miss_latency::.switch_cpus.data 83936.666667                       # average WriteReq mshr miss latency
system.cpu.dcache.WriteReq_avg_mshr_miss_latency::.switch_cpus_1.data        51250                       # average WriteReq mshr miss latency
system.cpu.dcache.WriteReq_avg_mshr_miss_latency::total 83720.198675                       # average WriteReq mshr miss latency
system.cpu.dcache.power_state.pwrStateResidencyTicks::UNDEFINED    300554000                       # Cumulative time (in ticks) in various power states
system.cpu.dcache.tags.tagsinuse           408.885046                       # Cycle average of tags in use
system.cpu.dcache.tags.total_refs               47406                       # Total number of references to valid blocks.
system.cpu.dcache.tags.sampled_refs              1955                       # Sample count of references to valid blocks.
system.cpu.dcache.tags.avg_refs             24.248593                       # Average number of references to valid blocks.
system.cpu.dcache.tags.warmup_cycle            153000                       # Cycle when the warmup percentage was hit.
system.cpu.dcache.tags.occ_blocks::.switch_cpus.data   403.426419                       # Average occupied blocks per requestor
system.cpu.dcache.tags.occ_blocks::.switch_cpus_1.data     5.458627                       # Average occupied blocks per requestor
system.cpu.dcache.tags.occ_percent::.switch_cpus.data     0.787942                       # Average percentage of cache occupancy
system.cpu.dcache.tags.occ_percent::.switch_cpus_1.data     0.010661                       # Average percentage of cache occupancy
system.cpu.dcache.tags.occ_percent::total     0.798604                       # Average percentage of cache occupancy
system.cpu.dcache.tags.occ_task_id_blocks::1024          512                       # Occupied blocks per task id
system.cpu.dcache.tags.age_task_id_blocks_1024::0           87                       # Occupied blocks per task id
system.cpu.dcache.tags.age_task_id_blocks_1024::1          399                       # Occupied blocks per task id
system.cpu.dcache.tags.age_task_id_blocks_1024::2           26                       # Occupied blocks per task id
system.cpu.dcache.tags.occ_task_id_percent::1024            1                       # Percentage of cache occupancy per task id
system.cpu.dcache.tags.tag_accesses            192255                       # Number of tag accesses
system.cpu.dcache.tags.data_accesses           192255                       # Number of data accesses
system.cpu.dcache.tags.cache_friendly               0                       # Number of cache friendly accesses
system.cpu.dcache.tags.cache_averse             47406                       # Number of cache averse accesses
system.cpu.dcache.tags.cache_friendly_victims            0                       # Number of cache friendly victims
system.cpu.dcache.tags.cache_averse_victims         1955                       # Number of cache averse victims
system.cpu.dcache.tags.OPT_hits                     0                       # Number of OPT hits
system.cpu.dcache.tags.OPT_misses                   0                       # Number of OPT misses
system.cpu.dcache.tags.OPT_nan                  47575                       # Number of OPT nan
system.cpu.dcache.tags.power_state.pwrStateResidencyTicks::UNDEFINED    300554000                       # Cumulative time (in ticks) in various power states
system.cpu.power_state.numTransitions               2                       # Number of power state transitions
system.cpu.power_state.pwrStateResidencyTicks::OFF    300554000                       # Cumulative time (in ticks) in various power states

---------- End Simulation Statistics   ----------
