
---------- Begin Simulation Statistics ----------
final_tick                               1317182225500                       # Number of ticks from beginning of simulation (restored from checkpoints and never reset)
host_inst_rate                                 517611                       # Simulator instruction rate (inst/s)
host_mem_usage                                 766624                       # Number of bytes of host memory used
host_op_rate                                   786108                       # Simulator op (including micro ops) rate (op/s)
host_seconds                                  4057.10                       # Real time elapsed on the host
host_tick_rate                               62465829                       # Simulator tick rate (ticks/s)
sim_freq                                 1000000000000                       # Frequency of simulated ticks
sim_insts                                  2100000004                       # Number of instructions simulated
sim_ops                                    3189316234                       # Number of ops (including micro ops) simulated
sim_seconds                                  0.253430                       # Number of seconds simulated
sim_ticks                                253429944000                       # Number of ticks simulated
system.cpu.committedInsts                           0                       # Number of instructions committed
system.cpu.committedOps                             0                       # Number of ops (including micro ops) committed
system.cpu.dtb.rdAccesses                           0                       # TLB accesses on read requests
system.cpu.dtb.rdMisses                             0                       # TLB misses on read requests
system.cpu.dtb.wrAccesses                           0                       # TLB accesses on write requests
system.cpu.dtb.wrMisses                             0                       # TLB misses on write requests
system.cpu.idle_fraction                            0                       # Percentage of idle cycles
system.cpu.itb.rdAccesses                           0                       # TLB accesses on read requests
system.cpu.itb.rdMisses                             0                       # TLB misses on read requests
system.cpu.itb.wrAccesses                           0                       # TLB accesses on write requests
system.cpu.itb.wrMisses                             0                       # TLB misses on write requests
system.cpu.not_idle_fraction                        1                       # Percentage of non-idle cycles
system.cpu.numCycles                                0                       # number of cpu cycles simulated
system.cpu.numWorkItemsCompleted                    0                       # number of work items this cpu completed
system.cpu.numWorkItemsStarted                      0                       # number of work items this cpu started
system.cpu.num_busy_cycles                          0                       # Number of busy cycles
system.cpu.num_conditional_control_insts            0                       # number of instructions that are conditional controls
system.cpu.num_fp_alu_accesses                      0                       # Number of float alu accesses
system.cpu.num_fp_insts                             0                       # number of float instructions
system.cpu.num_fp_register_reads                    0                       # number of times the floating registers were read
system.cpu.num_fp_register_writes                   0                       # number of times the floating registers were written
system.cpu.num_func_calls                           0                       # number of times a function call or return occured
system.cpu.num_idle_cycles                          0                       # Number of idle cycles
system.cpu.num_int_alu_accesses                     0                       # Number of integer alu accesses
system.cpu.num_int_insts                            0                       # number of integer instructions
system.cpu.num_int_register_reads                   0                       # number of times the integer registers were read
system.cpu.num_int_register_writes                  0                       # number of times the integer registers were written
system.cpu.num_load_insts                           0                       # Number of load instructions
system.cpu.num_mem_refs                             0                       # number of memory refs
system.cpu.num_store_insts                          0                       # Number of store instructions
system.cpu.num_vec_alu_accesses                     0                       # Number of vector alu accesses
system.cpu.num_vec_insts                            0                       # number of vector instructions
system.cpu.num_vec_register_reads                   0                       # number of times the vector registers were read
system.cpu.num_vec_register_writes                  0                       # number of times the vector registers were written
system.cpu.op_class::No_OpClass                     0                       # Class of executed instruction
system.cpu.op_class::IntAlu                         0                       # Class of executed instruction
system.cpu.op_class::IntMult                        0                       # Class of executed instruction
system.cpu.op_class::IntDiv                         0                       # Class of executed instruction
system.cpu.op_class::FloatAdd                       0                       # Class of executed instruction
system.cpu.op_class::FloatCmp                       0                       # Class of executed instruction
system.cpu.op_class::FloatCvt                       0                       # Class of executed instruction
system.cpu.op_class::FloatMult                      0                       # Class of executed instruction
system.cpu.op_class::FloatMultAcc                   0                       # Class of executed instruction
system.cpu.op_class::FloatDiv                       0                       # Class of executed instruction
system.cpu.op_class::FloatMisc                      0                       # Class of executed instruction
system.cpu.op_class::FloatSqrt                      0                       # Class of executed instruction
system.cpu.op_class::SimdAdd                        0                       # Class of executed instruction
system.cpu.op_class::SimdAddAcc                     0                       # Class of executed instruction
system.cpu.op_class::SimdAlu                        0                       # Class of executed instruction
system.cpu.op_class::SimdCmp                        0                       # Class of executed instruction
system.cpu.op_class::SimdCvt                        0                       # Class of executed instruction
system.cpu.op_class::SimdMisc                       0                       # Class of executed instruction
system.cpu.op_class::SimdMult                       0                       # Class of executed instruction
system.cpu.op_class::SimdMultAcc                    0                       # Class of executed instruction
system.cpu.op_class::SimdShift                      0                       # Class of executed instruction
system.cpu.op_class::SimdShiftAcc                   0                       # Class of executed instruction
system.cpu.op_class::SimdDiv                        0                       # Class of executed instruction
system.cpu.op_class::SimdSqrt                       0                       # Class of executed instruction
system.cpu.op_class::SimdFloatAdd                   0                       # Class of executed instruction
system.cpu.op_class::SimdFloatAlu                   0                       # Class of executed instruction
system.cpu.op_class::SimdFloatCmp                   0                       # Class of executed instruction
system.cpu.op_class::SimdFloatCvt                   0                       # Class of executed instruction
system.cpu.op_class::SimdFloatDiv                   0                       # Class of executed instruction
system.cpu.op_class::SimdFloatMisc                  0                       # Class of executed instruction
system.cpu.op_class::SimdFloatMult                  0                       # Class of executed instruction
system.cpu.op_class::SimdFloatMultAcc               0                       # Class of executed instruction
system.cpu.op_class::SimdFloatSqrt                  0                       # Class of executed instruction
system.cpu.op_class::SimdReduceAdd                  0                       # Class of executed instruction
system.cpu.op_class::SimdReduceAlu                  0                       # Class of executed instruction
system.cpu.op_class::SimdReduceCmp                  0                       # Class of executed instruction
system.cpu.op_class::SimdFloatReduceAdd             0                       # Class of executed instruction
system.cpu.op_class::SimdFloatReduceCmp             0                       # Class of executed instruction
system.cpu.op_class::SimdAes                        0                       # Class of executed instruction
system.cpu.op_class::SimdAesMix                     0                       # Class of executed instruction
system.cpu.op_class::SimdSha1Hash                   0                       # Class of executed instruction
system.cpu.op_class::SimdSha1Hash2                  0                       # Class of executed instruction
system.cpu.op_class::SimdSha256Hash                 0                       # Class of executed instruction
system.cpu.op_class::SimdSha256Hash2                0                       # Class of executed instruction
system.cpu.op_class::SimdShaSigma2                  0                       # Class of executed instruction
system.cpu.op_class::SimdShaSigma3                  0                       # Class of executed instruction
system.cpu.op_class::SimdPredAlu                    0                       # Class of executed instruction
system.cpu.op_class::MemRead                        0                       # Class of executed instruction
system.cpu.op_class::MemWrite                       0                       # Class of executed instruction
system.cpu.op_class::FloatMemRead                   0                       # Class of executed instruction
system.cpu.op_class::FloatMemWrite                  0                       # Class of executed instruction
system.cpu.op_class::IprAccess                      0                       # Class of executed instruction
system.cpu.op_class::InstPrefetch                   0                       # Class of executed instruction
system.cpu.op_class::total                          0                       # Class of executed instruction
system.cpu.workload.numSyscalls                     0                       # Number of system calls
system.membus.snoop_filter.hit_multi_requests            0                       # Number of requests hitting in the snoop filter with multiple (>1) holders of the requested data.
system.membus.snoop_filter.hit_multi_snoops            0                       # Number of snoops hitting in the snoop filter with multiple (>1) holders of the requested data.
system.membus.snoop_filter.hit_single_requests       406106                       # Number of requests hitting in the snoop filter with a single holder of the requested data.
system.membus.snoop_filter.hit_single_snoops            0                       # Number of snoops hitting in the snoop filter with a single holder of the requested data.
system.membus.snoop_filter.tot_requests        812488                       # Total number of requests made to the snoop filter.
system.membus.snoop_filter.tot_snoops               0                       # Total number of snoops made to the snoop filter.
system.switch_cpus.committedInsts                   0                       # Number of instructions committed
system.switch_cpus.committedOps                     0                       # Number of ops (including micro ops) committed
system.switch_cpus.dtb.rdAccesses                   0                       # TLB accesses on read requests
system.switch_cpus.dtb.rdMisses                     0                       # TLB misses on read requests
system.switch_cpus.dtb.wrAccesses                   0                       # TLB accesses on write requests
system.switch_cpus.dtb.wrMisses                     0                       # TLB misses on write requests
system.switch_cpus.idle_fraction                    0                       # Percentage of idle cycles
system.switch_cpus.itb.rdAccesses                   0                       # TLB accesses on read requests
system.switch_cpus.itb.rdMisses                     0                       # TLB misses on read requests
system.switch_cpus.itb.wrAccesses                   0                       # TLB accesses on write requests
system.switch_cpus.itb.wrMisses                     0                       # TLB misses on write requests
system.switch_cpus.not_idle_fraction                1                       # Percentage of non-idle cycles
system.switch_cpus.numCycles                        0                       # number of cpu cycles simulated
system.switch_cpus.numWorkItemsCompleted            0                       # number of work items this cpu completed
system.switch_cpus.numWorkItemsStarted              0                       # number of work items this cpu started
system.switch_cpus.num_busy_cycles                  0                       # Number of busy cycles
system.switch_cpus.num_conditional_control_insts            0                       # number of instructions that are conditional controls
system.switch_cpus.num_fp_alu_accesses              0                       # Number of float alu accesses
system.switch_cpus.num_fp_insts                     0                       # number of float instructions
system.switch_cpus.num_fp_register_reads            0                       # number of times the floating registers were read
system.switch_cpus.num_fp_register_writes            0                       # number of times the floating registers were written
system.switch_cpus.num_func_calls                   0                       # number of times a function call or return occured
system.switch_cpus.num_idle_cycles                  0                       # Number of idle cycles
system.switch_cpus.num_int_alu_accesses             0                       # Number of integer alu accesses
system.switch_cpus.num_int_insts                    0                       # number of integer instructions
system.switch_cpus.num_int_register_reads            0                       # number of times the integer registers were read
system.switch_cpus.num_int_register_writes            0                       # number of times the integer registers were written
system.switch_cpus.num_load_insts                   0                       # Number of load instructions
system.switch_cpus.num_mem_refs                     0                       # number of memory refs
system.switch_cpus.num_store_insts                  0                       # Number of store instructions
system.switch_cpus.num_vec_alu_accesses             0                       # Number of vector alu accesses
system.switch_cpus.num_vec_insts                    0                       # number of vector instructions
system.switch_cpus.num_vec_register_reads            0                       # number of times the vector registers were read
system.switch_cpus.num_vec_register_writes            0                       # number of times the vector registers were written
system.switch_cpus.op_class::No_OpClass             0                       # Class of executed instruction
system.switch_cpus.op_class::IntAlu                 0                       # Class of executed instruction
system.switch_cpus.op_class::IntMult                0                       # Class of executed instruction
system.switch_cpus.op_class::IntDiv                 0                       # Class of executed instruction
system.switch_cpus.op_class::FloatAdd               0                       # Class of executed instruction
system.switch_cpus.op_class::FloatCmp               0                       # Class of executed instruction
system.switch_cpus.op_class::FloatCvt               0                       # Class of executed instruction
system.switch_cpus.op_class::FloatMult              0                       # Class of executed instruction
system.switch_cpus.op_class::FloatMultAcc            0                       # Class of executed instruction
system.switch_cpus.op_class::FloatDiv               0                       # Class of executed instruction
system.switch_cpus.op_class::FloatMisc              0                       # Class of executed instruction
system.switch_cpus.op_class::FloatSqrt              0                       # Class of executed instruction
system.switch_cpus.op_class::SimdAdd                0                       # Class of executed instruction
system.switch_cpus.op_class::SimdAddAcc             0                       # Class of executed instruction
system.switch_cpus.op_class::SimdAlu                0                       # Class of executed instruction
system.switch_cpus.op_class::SimdCmp                0                       # Class of executed instruction
system.switch_cpus.op_class::SimdCvt                0                       # Class of executed instruction
system.switch_cpus.op_class::SimdMisc               0                       # Class of executed instruction
system.switch_cpus.op_class::SimdMult               0                       # Class of executed instruction
system.switch_cpus.op_class::SimdMultAcc            0                       # Class of executed instruction
system.switch_cpus.op_class::SimdShift              0                       # Class of executed instruction
system.switch_cpus.op_class::SimdShiftAcc            0                       # Class of executed instruction
system.switch_cpus.op_class::SimdDiv                0                       # Class of executed instruction
system.switch_cpus.op_class::SimdSqrt               0                       # Class of executed instruction
system.switch_cpus.op_class::SimdFloatAdd            0                       # Class of executed instruction
system.switch_cpus.op_class::SimdFloatAlu            0                       # Class of executed instruction
system.switch_cpus.op_class::SimdFloatCmp            0                       # Class of executed instruction
system.switch_cpus.op_class::SimdFloatCvt            0                       # Class of executed instruction
system.switch_cpus.op_class::SimdFloatDiv            0                       # Class of executed instruction
system.switch_cpus.op_class::SimdFloatMisc            0                       # Class of executed instruction
system.switch_cpus.op_class::SimdFloatMult            0                       # Class of executed instruction
system.switch_cpus.op_class::SimdFloatMultAcc            0                       # Class of executed instruction
system.switch_cpus.op_class::SimdFloatSqrt            0                       # Class of executed instruction
system.switch_cpus.op_class::SimdReduceAdd            0                       # Class of executed instruction
system.switch_cpus.op_class::SimdReduceAlu            0                       # Class of executed instruction
system.switch_cpus.op_class::SimdReduceCmp            0                       # Class of executed instruction
system.switch_cpus.op_class::SimdFloatReduceAdd            0                       # Class of executed instruction
system.switch_cpus.op_class::SimdFloatReduceCmp            0                       # Class of executed instruction
system.switch_cpus.op_class::SimdAes                0                       # Class of executed instruction
system.switch_cpus.op_class::SimdAesMix             0                       # Class of executed instruction
system.switch_cpus.op_class::SimdSha1Hash            0                       # Class of executed instruction
system.switch_cpus.op_class::SimdSha1Hash2            0                       # Class of executed instruction
system.switch_cpus.op_class::SimdSha256Hash            0                       # Class of executed instruction
system.switch_cpus.op_class::SimdSha256Hash2            0                       # Class of executed instruction
system.switch_cpus.op_class::SimdShaSigma2            0                       # Class of executed instruction
system.switch_cpus.op_class::SimdShaSigma3            0                       # Class of executed instruction
system.switch_cpus.op_class::SimdPredAlu            0                       # Class of executed instruction
system.switch_cpus.op_class::MemRead                0                       # Class of executed instruction
system.switch_cpus.op_class::MemWrite               0                       # Class of executed instruction
system.switch_cpus.op_class::FloatMemRead            0                       # Class of executed instruction
system.switch_cpus.op_class::FloatMemWrite            0                       # Class of executed instruction
system.switch_cpus.op_class::IprAccess              0                       # Class of executed instruction
system.switch_cpus.op_class::InstPrefetch            0                       # Class of executed instruction
system.switch_cpus.op_class::total                  0                       # Class of executed instruction
system.switch_cpus_1.branchPred.BTBCorrect            0                       # Number of correct BTB predictions (this stat may not work properly.
system.switch_cpus_1.branchPred.BTBHitPct          nan                       # BTB Hit Percentage
system.switch_cpus_1.branchPred.BTBHits             0                       # Number of BTB hits
system.switch_cpus_1.branchPred.BTBLookups            0                       # Number of BTB lookups
system.switch_cpus_1.branchPred.RASInCorrect            2                       # Number of incorrect RAS predictions.
system.switch_cpus_1.branchPred.condIncorrect       270709                       # Number of conditional branches incorrect
system.switch_cpus_1.branchPred.condPredicted     49837819                       # Number of conditional branches predicted
system.switch_cpus_1.branchPred.indirectHits     32692816                       # Number of indirect target hits.
system.switch_cpus_1.branchPred.indirectLookups     32790193                       # Number of indirect predictor lookups.
system.switch_cpus_1.branchPred.indirectMisses        97377                       # Number of indirect misses.
system.switch_cpus_1.branchPred.lookups      50485584                       # Number of BP lookups
system.switch_cpus_1.branchPred.usedRAS        333770                       # Number of times the RAS was used to get a target.
system.switch_cpus_1.branchPredindirectMispredicted        17338                       # Number of mispredicted indirect branches.
system.switch_cpus_1.cc_regfile_reads      1607261046                       # number of cc regfile reads
system.switch_cpus_1.cc_regfile_writes      799603381                       # number of cc regfile writes
system.switch_cpus_1.commit.amos                    0                       # Number of atomic instructions committed
system.switch_cpus_1.commit.branchMispredicts       270723                       # The number of times a branch was mispredicted
system.switch_cpus_1.commit.branches         48265798                       # Number of branches committed
system.switch_cpus_1.commit.bw_lim_events    123620313                       # number cycles where commit BW limit reached
system.switch_cpus_1.commit.commitSquashedInsts     13540652                       # The number of squashed insts skipped by commit
system.switch_cpus_1.commit.committedInsts   1000000001                       # Number of instructions committed
system.switch_cpus_1.commit.committedOps   1514133691                       # Number of ops (including micro ops) committed
system.switch_cpus_1.commit.committed_per_cycle::samples    504875895                       # Number of insts commited each cycle
system.switch_cpus_1.commit.committed_per_cycle::mean     2.999022                       # Number of insts commited each cycle
system.switch_cpus_1.commit.committed_per_cycle::stdev     3.237951                       # Number of insts commited each cycle
system.switch_cpus_1.commit.committed_per_cycle::underflows            0      0.00%      0.00% # Number of insts commited each cycle
system.switch_cpus_1.commit.committed_per_cycle::0    150180540     29.75%     29.75% # Number of insts commited each cycle
system.switch_cpus_1.commit.committed_per_cycle::1    131836419     26.11%     55.86% # Number of insts commited each cycle
system.switch_cpus_1.commit.committed_per_cycle::2      7275367      1.44%     57.30% # Number of insts commited each cycle
system.switch_cpus_1.commit.committed_per_cycle::3     46411054      9.19%     66.49% # Number of insts commited each cycle
system.switch_cpus_1.commit.committed_per_cycle::4     23370597      4.63%     71.12% # Number of insts commited each cycle
system.switch_cpus_1.commit.committed_per_cycle::5      1336077      0.26%     71.39% # Number of insts commited each cycle
system.switch_cpus_1.commit.committed_per_cycle::6      6530597      1.29%     72.68% # Number of insts commited each cycle
system.switch_cpus_1.commit.committed_per_cycle::7     14314931      2.84%     75.51% # Number of insts commited each cycle
system.switch_cpus_1.commit.committed_per_cycle::8    123620313     24.49%    100.00% # Number of insts commited each cycle
system.switch_cpus_1.commit.committed_per_cycle::overflows            0      0.00%    100.00% # Number of insts commited each cycle
system.switch_cpus_1.commit.committed_per_cycle::min_value            0                       # Number of insts commited each cycle
system.switch_cpus_1.commit.committed_per_cycle::max_value            8                       # Number of insts commited each cycle
system.switch_cpus_1.commit.committed_per_cycle::total    504875895                       # Number of insts commited each cycle
system.switch_cpus_1.commit.fp_insts          3936615                       # Number of committed floating point instructions.
system.switch_cpus_1.commit.function_calls       255234                       # Number of function calls committed.
system.switch_cpus_1.commit.int_insts      1511127745                       # Number of committed integer instructions.
system.switch_cpus_1.commit.loads           429254078                       # Number of loads committed
system.switch_cpus_1.commit.membars                 0                       # Number of memory barriers committed
system.switch_cpus_1.commit.op_class_0::No_OpClass       202802      0.01%      0.01% # Class of committed instruction
system.switch_cpus_1.commit.op_class_0::IntAlu    928367339     61.31%     61.33% # Class of committed instruction
system.switch_cpus_1.commit.op_class_0::IntMult       406096      0.03%     61.35% # Class of committed instruction
system.switch_cpus_1.commit.op_class_0::IntDiv            0      0.00%     61.35% # Class of committed instruction
system.switch_cpus_1.commit.op_class_0::FloatAdd       154891      0.01%     61.36% # Class of committed instruction
system.switch_cpus_1.commit.op_class_0::FloatCmp            0      0.00%     61.36% # Class of committed instruction
system.switch_cpus_1.commit.op_class_0::FloatCvt            0      0.00%     61.36% # Class of committed instruction
system.switch_cpus_1.commit.op_class_0::FloatMult            0      0.00%     61.36% # Class of committed instruction
system.switch_cpus_1.commit.op_class_0::FloatMultAcc            0      0.00%     61.36% # Class of committed instruction
system.switch_cpus_1.commit.op_class_0::FloatDiv            0      0.00%     61.36% # Class of committed instruction
system.switch_cpus_1.commit.op_class_0::FloatMisc            0      0.00%     61.36% # Class of committed instruction
system.switch_cpus_1.commit.op_class_0::FloatSqrt            0      0.00%     61.36% # Class of committed instruction
system.switch_cpus_1.commit.op_class_0::SimdAdd            0      0.00%     61.36% # Class of committed instruction
system.switch_cpus_1.commit.op_class_0::SimdAddAcc            0      0.00%     61.36% # Class of committed instruction
system.switch_cpus_1.commit.op_class_0::SimdAlu       354440      0.02%     61.39% # Class of committed instruction
system.switch_cpus_1.commit.op_class_0::SimdCmp            0      0.00%     61.39% # Class of committed instruction
system.switch_cpus_1.commit.op_class_0::SimdCvt       303968      0.02%     61.41% # Class of committed instruction
system.switch_cpus_1.commit.op_class_0::SimdMisc       610076      0.04%     61.45% # Class of committed instruction
system.switch_cpus_1.commit.op_class_0::SimdMult            0      0.00%     61.45% # Class of committed instruction
system.switch_cpus_1.commit.op_class_0::SimdMultAcc            0      0.00%     61.45% # Class of committed instruction
system.switch_cpus_1.commit.op_class_0::SimdShift            0      0.00%     61.45% # Class of committed instruction
system.switch_cpus_1.commit.op_class_0::SimdShiftAcc            0      0.00%     61.45% # Class of committed instruction
system.switch_cpus_1.commit.op_class_0::SimdDiv            0      0.00%     61.45% # Class of committed instruction
system.switch_cpus_1.commit.op_class_0::SimdSqrt            0      0.00%     61.45% # Class of committed instruction
system.switch_cpus_1.commit.op_class_0::SimdFloatAdd       518017      0.03%     61.48% # Class of committed instruction
system.switch_cpus_1.commit.op_class_0::SimdFloatAlu            0      0.00%     61.48% # Class of committed instruction
system.switch_cpus_1.commit.op_class_0::SimdFloatCmp          155      0.00%     61.48% # Class of committed instruction
system.switch_cpus_1.commit.op_class_0::SimdFloatCvt       774502      0.05%     61.53% # Class of committed instruction
system.switch_cpus_1.commit.op_class_0::SimdFloatDiv       101679      0.01%     61.54% # Class of committed instruction
system.switch_cpus_1.commit.op_class_0::SimdFloatMisc            0      0.00%     61.54% # Class of committed instruction
system.switch_cpus_1.commit.op_class_0::SimdFloatMult        52575      0.00%     61.54% # Class of committed instruction
system.switch_cpus_1.commit.op_class_0::SimdFloatMultAcc            0      0.00%     61.54% # Class of committed instruction
system.switch_cpus_1.commit.op_class_0::SimdFloatSqrt            0      0.00%     61.54% # Class of committed instruction
system.switch_cpus_1.commit.op_class_0::SimdReduceAdd            0      0.00%     61.54% # Class of committed instruction
system.switch_cpus_1.commit.op_class_0::SimdReduceAlu            0      0.00%     61.54% # Class of committed instruction
system.switch_cpus_1.commit.op_class_0::SimdReduceCmp            0      0.00%     61.54% # Class of committed instruction
system.switch_cpus_1.commit.op_class_0::SimdFloatReduceAdd            0      0.00%     61.54% # Class of committed instruction
system.switch_cpus_1.commit.op_class_0::SimdFloatReduceCmp            0      0.00%     61.54% # Class of committed instruction
system.switch_cpus_1.commit.op_class_0::SimdAes            0      0.00%     61.54% # Class of committed instruction
system.switch_cpus_1.commit.op_class_0::SimdAesMix            0      0.00%     61.54% # Class of committed instruction
system.switch_cpus_1.commit.op_class_0::SimdSha1Hash            0      0.00%     61.54% # Class of committed instruction
system.switch_cpus_1.commit.op_class_0::SimdSha1Hash2            0      0.00%     61.54% # Class of committed instruction
system.switch_cpus_1.commit.op_class_0::SimdSha256Hash            0      0.00%     61.54% # Class of committed instruction
system.switch_cpus_1.commit.op_class_0::SimdSha256Hash2            0      0.00%     61.54% # Class of committed instruction
system.switch_cpus_1.commit.op_class_0::SimdShaSigma2            0      0.00%     61.54% # Class of committed instruction
system.switch_cpus_1.commit.op_class_0::SimdShaSigma3            0      0.00%     61.54% # Class of committed instruction
system.switch_cpus_1.commit.op_class_0::SimdPredAlu            0      0.00%     61.54% # Class of committed instruction
system.switch_cpus_1.commit.op_class_0::MemRead    428429030     28.30%     89.84% # Class of committed instruction
system.switch_cpus_1.commit.op_class_0::MemWrite    153030300     10.11%     99.95% # Class of committed instruction
system.switch_cpus_1.commit.op_class_0::FloatMemRead       825048      0.05%    100.00% # Class of committed instruction
system.switch_cpus_1.commit.op_class_0::FloatMemWrite         2773      0.00%    100.00% # Class of committed instruction
system.switch_cpus_1.commit.op_class_0::IprAccess            0      0.00%    100.00% # Class of committed instruction
system.switch_cpus_1.commit.op_class_0::InstPrefetch            0      0.00%    100.00% # Class of committed instruction
system.switch_cpus_1.commit.op_class_0::total   1514133691                       # Class of committed instruction
system.switch_cpus_1.commit.refs            582287151                       # Number of memory references committed
system.switch_cpus_1.commit.swp_count               0                       # Number of s/w prefetches committed
system.switch_cpus_1.commit.vec_insts               0                       # Number of committed Vector instructions.
system.switch_cpus_1.committedInsts        1000000001                       # Number of Instructions Simulated
system.switch_cpus_1.committedOps          1514133691                       # Number of Ops (including micro ops) Simulated
system.switch_cpus_1.cpi                     0.506860                       # CPI: Cycles Per Instruction
system.switch_cpus_1.cpi_total               0.506860                       # CPI: Total CPI of All Threads
system.switch_cpus_1.decode.BlockedCycles    286775138                       # Number of cycles decode is blocked
system.switch_cpus_1.decode.DecodedInsts   1532359580                       # Number of instructions handled by decode
system.switch_cpus_1.decode.IdleCycles       27718301                       # Number of cycles decode is idle
system.switch_cpus_1.decode.RunCycles       134948322                       # Number of cycles decode is running
system.switch_cpus_1.decode.SquashCycles       283938                       # Number of cycles decode is squashing
system.switch_cpus_1.decode.UnblockCycles     57132770                       # Number of cycles decode is unblocking
system.switch_cpus_1.dtb.rdAccesses         431275433                       # TLB accesses on read requests
system.switch_cpus_1.dtb.rdMisses                4881                       # TLB misses on read requests
system.switch_cpus_1.dtb.wrAccesses         153274794                       # TLB accesses on write requests
system.switch_cpus_1.dtb.wrMisses               46178                       # TLB misses on write requests
system.switch_cpus_1.fetch.Branches          50485584                       # Number of branches that fetch encountered
system.switch_cpus_1.fetch.CacheLines        78297489                       # Number of cache lines fetched
system.switch_cpus_1.fetch.Cycles           506441016                       # Number of cycles fetch has run and was not squashing or blocked
system.switch_cpus_1.fetch.IcacheSquashes           95                       # Number of outstanding Icache misses that were squashed
system.switch_cpus_1.fetch.IcacheWaitRetryStallCycles          107                       # Number of stall cycles due to full MSHR
system.switch_cpus_1.fetch.Insts           1015037591                       # Number of instructions fetch has processed
system.switch_cpus_1.fetch.MiscStallCycles           36                       # Number of cycles fetch has spent waiting on interrupts, or bad addresses, or out of MSHRs
system.switch_cpus_1.fetch.PendingTrapStallCycles          105                       # Number of stall cycles due to pending traps
system.switch_cpus_1.fetch.SquashCycles        567876                       # Number of cycles fetch has spent squashing
system.switch_cpus_1.fetch.branchRate        0.099605                       # Number of branch fetches per cycle
system.switch_cpus_1.fetch.icacheStallCycles       133280                       # Number of cycles fetch is stalled on an Icache miss
system.switch_cpus_1.fetch.predictedBranches     33026586                       # Number of branches that fetch has predicted taken
system.switch_cpus_1.fetch.rate              2.002600                       # Number of inst fetches per cycle
system.switch_cpus_1.fetch.rateDist::samples    506858482                       # Number of instructions fetched each cycle (Total)
system.switch_cpus_1.fetch.rateDist::mean     3.038538                       # Number of instructions fetched each cycle (Total)
system.switch_cpus_1.fetch.rateDist::stdev     3.520720                       # Number of instructions fetched each cycle (Total)
system.switch_cpus_1.fetch.rateDist::underflows            0      0.00%      0.00% # Number of instructions fetched each cycle (Total)
system.switch_cpus_1.fetch.rateDist::0      256634563     50.63%     50.63% # Number of instructions fetched each cycle (Total)
system.switch_cpus_1.fetch.rateDist::1       19534834      3.85%     54.49% # Number of instructions fetched each cycle (Total)
system.switch_cpus_1.fetch.rateDist::2        6051081      1.19%     55.68% # Number of instructions fetched each cycle (Total)
system.switch_cpus_1.fetch.rateDist::3       20523467      4.05%     59.73% # Number of instructions fetched each cycle (Total)
system.switch_cpus_1.fetch.rateDist::4       34754962      6.86%     66.59% # Number of instructions fetched each cycle (Total)
system.switch_cpus_1.fetch.rateDist::5        5723919      1.13%     67.72% # Number of instructions fetched each cycle (Total)
system.switch_cpus_1.fetch.rateDist::6        4732633      0.93%     68.65% # Number of instructions fetched each cycle (Total)
system.switch_cpus_1.fetch.rateDist::7       20357958      4.02%     72.67% # Number of instructions fetched each cycle (Total)
system.switch_cpus_1.fetch.rateDist::8      138545065     27.33%    100.00% # Number of instructions fetched each cycle (Total)
system.switch_cpus_1.fetch.rateDist::overflows            0      0.00%    100.00% # Number of instructions fetched each cycle (Total)
system.switch_cpus_1.fetch.rateDist::min_value            0                       # Number of instructions fetched each cycle (Total)
system.switch_cpus_1.fetch.rateDist::max_value            8                       # Number of instructions fetched each cycle (Total)
system.switch_cpus_1.fetch.rateDist::total    506858482                       # Number of instructions fetched each cycle (Total)
system.switch_cpus_1.fp_regfile_reads         8208756                       # number of floating regfile reads
system.switch_cpus_1.fp_regfile_writes        4175045                       # number of floating regfile writes
system.switch_cpus_1.idleCycles                  1406                       # Total number of cycles that the CPU has spent unscheduled due to idling
system.switch_cpus_1.iew.branchMispredicts       337734                       # Number of branch mispredicts detected at execute
system.switch_cpus_1.iew.exec_branches       48635193                       # Number of branches executed
system.switch_cpus_1.iew.exec_nop                   0                       # number of nop insts executed
system.switch_cpus_1.iew.exec_rate           3.003857                       # Inst execution rate
system.switch_cpus_1.iew.exec_refs          584678681                       # number of memory reference insts executed
system.switch_cpus_1.iew.exec_stores        153274655                       # Number of stores executed
system.switch_cpus_1.iew.exec_swp                   0                       # number of swp insts executed
system.switch_cpus_1.iew.iewBlockCycles       1801870                       # Number of cycles IEW is blocking
system.switch_cpus_1.iew.iewDispLoadInsts    431773638                       # Number of dispatched load instructions
system.switch_cpus_1.iew.iewDispNonSpecInsts            4                       # Number of dispatched non-speculative instructions
system.switch_cpus_1.iew.iewDispSquashedInsts         8930                       # Number of squashed instructions skipped by dispatch
system.switch_cpus_1.iew.iewDispStoreInsts    153637214                       # Number of dispatched store instructions
system.switch_cpus_1.iew.iewDispatchedInsts   1527674427                       # Number of instructions dispatched to IQ
system.switch_cpus_1.iew.iewExecLoadInsts    431404026                       # Number of load instructions executed
system.switch_cpus_1.iew.iewExecSquashedInsts       608139                       # Number of squashed instructions skipped in execute
system.switch_cpus_1.iew.iewExecutedInsts   1522534706                       # Number of executed instructions
system.switch_cpus_1.iew.iewIQFullEvents        38209                       # Number of times the IQ has become full, causing a stall
system.switch_cpus_1.iew.iewIdleCycles              0                       # Number of cycles IEW is idle
system.switch_cpus_1.iew.iewLSQFullEvents     15047225                       # Number of times the LSQ has become full, causing a stall
system.switch_cpus_1.iew.iewSquashCycles       283938                       # Number of cycles IEW is squashing
system.switch_cpus_1.iew.iewUnblockCycles     15097039                       # Number of cycles IEW is unblocking
system.switch_cpus_1.iew.lsq.thread0.blockedLoads            0                       # Number of blocked loads due to partial load-store forwarding
system.switch_cpus_1.iew.lsq.thread0.cacheBlocked        42119                       # Number of times an access to memory failed due to the cache being blocked
system.switch_cpus_1.iew.lsq.thread0.forwLoads     27748028                       # Number of loads that had data forwarded from stores
system.switch_cpus_1.iew.lsq.thread0.ignoredResponses          911                       # Number of memory responses ignored because the instruction is squashed
system.switch_cpus_1.iew.lsq.thread0.invAddrLoads            0                       # Number of loads ignored due to an invalid address
system.switch_cpus_1.iew.lsq.thread0.invAddrSwpfs            0                       # Number of software prefetches ignored due to an invalid address
system.switch_cpus_1.iew.lsq.thread0.memOrderViolation        14163                       # Number of memory ordering violations
system.switch_cpus_1.iew.lsq.thread0.rescheduledLoads            0                       # Number of loads that were rescheduled
system.switch_cpus_1.iew.lsq.thread0.squashedLoads      2519543                       # Number of loads squashed
system.switch_cpus_1.iew.lsq.thread0.squashedStores       604133                       # Number of stores squashed
system.switch_cpus_1.iew.memOrderViolationEvents        14163                       # Number of memory order violations
system.switch_cpus_1.iew.predictedNotTakenIncorrect       220907                       # Number of branches that were predicted not taken incorrectly
system.switch_cpus_1.iew.predictedTakenIncorrect       116827                       # Number of branches that were predicted taken incorrectly
system.switch_cpus_1.iew.wb_consumers      2561064164                       # num instructions consuming a value
system.switch_cpus_1.iew.wb_count          1521964536                       # cumulative count of insts written-back
system.switch_cpus_1.iew.wb_fanout           0.500112                       # average fanout of values written-back
system.switch_cpus_1.iew.wb_producers      1280819812                       # num instructions producing a value
system.switch_cpus_1.iew.wb_rate             3.002732                       # insts written-back per cycle
system.switch_cpus_1.iew.wb_sent           1522173530                       # cumulative count of insts sent to commit
system.switch_cpus_1.int_regfile_reads     3092460633                       # number of integer regfile reads
system.switch_cpus_1.int_regfile_writes    1315719429                       # number of integer regfile writes
system.switch_cpus_1.ipc                     1.972932                       # IPC: Instructions Per Cycle
system.switch_cpus_1.ipc_total               1.972932                       # IPC: Total IPC of All Threads
system.switch_cpus_1.iq.FU_type_0::No_OpClass       233464      0.02%      0.02% # Type of FU issued
system.switch_cpus_1.iq.FU_type_0::IntAlu    933939196     61.32%     61.33% # Type of FU issued
system.switch_cpus_1.iq.FU_type_0::IntMult       414263      0.03%     61.36% # Type of FU issued
system.switch_cpus_1.iq.FU_type_0::IntDiv            0      0.00%     61.36% # Type of FU issued
system.switch_cpus_1.iq.FU_type_0::FloatAdd       200173      0.01%     61.37% # Type of FU issued
system.switch_cpus_1.iq.FU_type_0::FloatCmp            0      0.00%     61.37% # Type of FU issued
system.switch_cpus_1.iq.FU_type_0::FloatCvt          150      0.00%     61.37% # Type of FU issued
system.switch_cpus_1.iq.FU_type_0::FloatMult            0      0.00%     61.37% # Type of FU issued
system.switch_cpus_1.iq.FU_type_0::FloatMultAcc            0      0.00%     61.37% # Type of FU issued
system.switch_cpus_1.iq.FU_type_0::FloatDiv            0      0.00%     61.37% # Type of FU issued
system.switch_cpus_1.iq.FU_type_0::FloatMisc            0      0.00%     61.37% # Type of FU issued
system.switch_cpus_1.iq.FU_type_0::FloatSqrt            0      0.00%     61.37% # Type of FU issued
system.switch_cpus_1.iq.FU_type_0::SimdAdd            0      0.00%     61.37% # Type of FU issued
system.switch_cpus_1.iq.FU_type_0::SimdAddAcc            0      0.00%     61.37% # Type of FU issued
system.switch_cpus_1.iq.FU_type_0::SimdAlu       425636      0.03%     61.40% # Type of FU issued
system.switch_cpus_1.iq.FU_type_0::SimdCmp            0      0.00%     61.40% # Type of FU issued
system.switch_cpus_1.iq.FU_type_0::SimdCvt       319736      0.02%     61.42% # Type of FU issued
system.switch_cpus_1.iq.FU_type_0::SimdMisc       646379      0.04%     61.46% # Type of FU issued
system.switch_cpus_1.iq.FU_type_0::SimdMult            0      0.00%     61.46% # Type of FU issued
system.switch_cpus_1.iq.FU_type_0::SimdMultAcc            0      0.00%     61.46% # Type of FU issued
system.switch_cpus_1.iq.FU_type_0::SimdShift            0      0.00%     61.46% # Type of FU issued
system.switch_cpus_1.iq.FU_type_0::SimdShiftAcc            0      0.00%     61.46% # Type of FU issued
system.switch_cpus_1.iq.FU_type_0::SimdDiv            0      0.00%     61.46% # Type of FU issued
system.switch_cpus_1.iq.FU_type_0::SimdSqrt            0      0.00%     61.46% # Type of FU issued
system.switch_cpus_1.iq.FU_type_0::SimdFloatAdd       816866      0.05%     61.52% # Type of FU issued
system.switch_cpus_1.iq.FU_type_0::SimdFloatAlu            0      0.00%     61.52% # Type of FU issued
system.switch_cpus_1.iq.FU_type_0::SimdFloatCmp          294      0.00%     61.52% # Type of FU issued
system.switch_cpus_1.iq.FU_type_0::SimdFloatCvt       934571      0.06%     61.58% # Type of FU issued
system.switch_cpus_1.iq.FU_type_0::SimdFloatDiv       133895      0.01%     61.59% # Type of FU issued
system.switch_cpus_1.iq.FU_type_0::SimdFloatMisc            0      0.00%     61.59% # Type of FU issued
system.switch_cpus_1.iq.FU_type_0::SimdFloatMult        62434      0.00%     61.59% # Type of FU issued
system.switch_cpus_1.iq.FU_type_0::SimdFloatMultAcc            0      0.00%     61.59% # Type of FU issued
system.switch_cpus_1.iq.FU_type_0::SimdFloatSqrt            0      0.00%     61.59% # Type of FU issued
system.switch_cpus_1.iq.FU_type_0::SimdReduceAdd            0      0.00%     61.59% # Type of FU issued
system.switch_cpus_1.iq.FU_type_0::SimdReduceAlu            0      0.00%     61.59% # Type of FU issued
system.switch_cpus_1.iq.FU_type_0::SimdReduceCmp            0      0.00%     61.59% # Type of FU issued
system.switch_cpus_1.iq.FU_type_0::SimdFloatReduceAdd            0      0.00%     61.59% # Type of FU issued
system.switch_cpus_1.iq.FU_type_0::SimdFloatReduceCmp            0      0.00%     61.59% # Type of FU issued
system.switch_cpus_1.iq.FU_type_0::SimdAes            0      0.00%     61.59% # Type of FU issued
system.switch_cpus_1.iq.FU_type_0::SimdAesMix            0      0.00%     61.59% # Type of FU issued
system.switch_cpus_1.iq.FU_type_0::SimdSha1Hash            0      0.00%     61.59% # Type of FU issued
system.switch_cpus_1.iq.FU_type_0::SimdSha1Hash2            0      0.00%     61.59% # Type of FU issued
system.switch_cpus_1.iq.FU_type_0::SimdSha256Hash            0      0.00%     61.59% # Type of FU issued
system.switch_cpus_1.iq.FU_type_0::SimdSha256Hash2            0      0.00%     61.59% # Type of FU issued
system.switch_cpus_1.iq.FU_type_0::SimdShaSigma2            0      0.00%     61.59% # Type of FU issued
system.switch_cpus_1.iq.FU_type_0::SimdShaSigma3            0      0.00%     61.59% # Type of FU issued
system.switch_cpus_1.iq.FU_type_0::SimdPredAlu            0      0.00%     61.59% # Type of FU issued
system.switch_cpus_1.iq.FU_type_0::MemRead    430466947     28.26%     89.85% # Type of FU issued
system.switch_cpus_1.iq.FU_type_0::MemWrite    153302963     10.06%     99.92% # Type of FU issued
system.switch_cpus_1.iq.FU_type_0::FloatMemRead      1241458      0.08%    100.00% # Type of FU issued
system.switch_cpus_1.iq.FU_type_0::FloatMemWrite         4426      0.00%    100.00% # Type of FU issued
system.switch_cpus_1.iq.FU_type_0::IprAccess            0      0.00%    100.00% # Type of FU issued
system.switch_cpus_1.iq.FU_type_0::InstPrefetch            0      0.00%    100.00% # Type of FU issued
system.switch_cpus_1.iq.FU_type_0::total   1523142851                       # Type of FU issued
system.switch_cpus_1.iq.fp_alu_accesses       5090655                       # Number of floating point alu accesses
system.switch_cpus_1.iq.fp_inst_queue_reads     10146211                       # Number of floating instruction queue reads
system.switch_cpus_1.iq.fp_inst_queue_wakeup_accesses      4971189                       # Number of floating instruction queue wakeup accesses
system.switch_cpus_1.iq.fp_inst_queue_writes      7279125                       # Number of floating instruction queue writes
system.switch_cpus_1.iq.fu_busy_cnt           8680616                       # FU busy when requested
system.switch_cpus_1.iq.fu_busy_rate         0.005699                       # FU busy rate (busy events/executed inst)
system.switch_cpus_1.iq.fu_full::No_OpClass            0      0.00%      0.00% # attempts to use FU when none available
system.switch_cpus_1.iq.fu_full::IntAlu        680771      7.84%      7.84% # attempts to use FU when none available
system.switch_cpus_1.iq.fu_full::IntMult            0      0.00%      7.84% # attempts to use FU when none available
system.switch_cpus_1.iq.fu_full::IntDiv             0      0.00%      7.84% # attempts to use FU when none available
system.switch_cpus_1.iq.fu_full::FloatAdd            0      0.00%      7.84% # attempts to use FU when none available
system.switch_cpus_1.iq.fu_full::FloatCmp            0      0.00%      7.84% # attempts to use FU when none available
system.switch_cpus_1.iq.fu_full::FloatCvt            0      0.00%      7.84% # attempts to use FU when none available
system.switch_cpus_1.iq.fu_full::FloatMult            0      0.00%      7.84% # attempts to use FU when none available
system.switch_cpus_1.iq.fu_full::FloatMultAcc            0      0.00%      7.84% # attempts to use FU when none available
system.switch_cpus_1.iq.fu_full::FloatDiv            0      0.00%      7.84% # attempts to use FU when none available
system.switch_cpus_1.iq.fu_full::FloatMisc            0      0.00%      7.84% # attempts to use FU when none available
system.switch_cpus_1.iq.fu_full::FloatSqrt            0      0.00%      7.84% # attempts to use FU when none available
system.switch_cpus_1.iq.fu_full::SimdAdd            0      0.00%      7.84% # attempts to use FU when none available
system.switch_cpus_1.iq.fu_full::SimdAddAcc            0      0.00%      7.84% # attempts to use FU when none available
system.switch_cpus_1.iq.fu_full::SimdAlu          735      0.01%      7.85% # attempts to use FU when none available
system.switch_cpus_1.iq.fu_full::SimdCmp            0      0.00%      7.85% # attempts to use FU when none available
system.switch_cpus_1.iq.fu_full::SimdCvt         7352      0.08%      7.94% # attempts to use FU when none available
system.switch_cpus_1.iq.fu_full::SimdMisc            5      0.00%      7.94% # attempts to use FU when none available
system.switch_cpus_1.iq.fu_full::SimdMult            0      0.00%      7.94% # attempts to use FU when none available
system.switch_cpus_1.iq.fu_full::SimdMultAcc            0      0.00%      7.94% # attempts to use FU when none available
system.switch_cpus_1.iq.fu_full::SimdShift            0      0.00%      7.94% # attempts to use FU when none available
system.switch_cpus_1.iq.fu_full::SimdShiftAcc            0      0.00%      7.94% # attempts to use FU when none available
system.switch_cpus_1.iq.fu_full::SimdDiv            0      0.00%      7.94% # attempts to use FU when none available
system.switch_cpus_1.iq.fu_full::SimdSqrt            0      0.00%      7.94% # attempts to use FU when none available
system.switch_cpus_1.iq.fu_full::SimdFloatAdd         1458      0.02%      7.95% # attempts to use FU when none available
system.switch_cpus_1.iq.fu_full::SimdFloatAlu            0      0.00%      7.95% # attempts to use FU when none available
system.switch_cpus_1.iq.fu_full::SimdFloatCmp            0      0.00%      7.95% # attempts to use FU when none available
system.switch_cpus_1.iq.fu_full::SimdFloatCvt        25460      0.29%      8.25% # attempts to use FU when none available
system.switch_cpus_1.iq.fu_full::SimdFloatDiv            0      0.00%      8.25% # attempts to use FU when none available
system.switch_cpus_1.iq.fu_full::SimdFloatMisc            0      0.00%      8.25% # attempts to use FU when none available
system.switch_cpus_1.iq.fu_full::SimdFloatMult            0      0.00%      8.25% # attempts to use FU when none available
system.switch_cpus_1.iq.fu_full::SimdFloatMultAcc            0      0.00%      8.25% # attempts to use FU when none available
system.switch_cpus_1.iq.fu_full::SimdFloatSqrt            0      0.00%      8.25% # attempts to use FU when none available
system.switch_cpus_1.iq.fu_full::SimdReduceAdd            0      0.00%      8.25% # attempts to use FU when none available
system.switch_cpus_1.iq.fu_full::SimdReduceAlu            0      0.00%      8.25% # attempts to use FU when none available
system.switch_cpus_1.iq.fu_full::SimdReduceCmp            0      0.00%      8.25% # attempts to use FU when none available
system.switch_cpus_1.iq.fu_full::SimdFloatReduceAdd            0      0.00%      8.25% # attempts to use FU when none available
system.switch_cpus_1.iq.fu_full::SimdFloatReduceCmp            0      0.00%      8.25% # attempts to use FU when none available
system.switch_cpus_1.iq.fu_full::SimdAes            0      0.00%      8.25% # attempts to use FU when none available
system.switch_cpus_1.iq.fu_full::SimdAesMix            0      0.00%      8.25% # attempts to use FU when none available
system.switch_cpus_1.iq.fu_full::SimdSha1Hash            0      0.00%      8.25% # attempts to use FU when none available
system.switch_cpus_1.iq.fu_full::SimdSha1Hash2            0      0.00%      8.25% # attempts to use FU when none available
system.switch_cpus_1.iq.fu_full::SimdSha256Hash            0      0.00%      8.25% # attempts to use FU when none available
system.switch_cpus_1.iq.fu_full::SimdSha256Hash2            0      0.00%      8.25% # attempts to use FU when none available
system.switch_cpus_1.iq.fu_full::SimdShaSigma2            0      0.00%      8.25% # attempts to use FU when none available
system.switch_cpus_1.iq.fu_full::SimdShaSigma3            0      0.00%      8.25% # attempts to use FU when none available
system.switch_cpus_1.iq.fu_full::SimdPredAlu            0      0.00%      8.25% # attempts to use FU when none available
system.switch_cpus_1.iq.fu_full::MemRead      7952396     91.61%     99.86% # attempts to use FU when none available
system.switch_cpus_1.iq.fu_full::MemWrite        11017      0.13%     99.98% # attempts to use FU when none available
system.switch_cpus_1.iq.fu_full::FloatMemRead         1419      0.02%    100.00% # attempts to use FU when none available
system.switch_cpus_1.iq.fu_full::FloatMemWrite            3      0.00%    100.00% # attempts to use FU when none available
system.switch_cpus_1.iq.fu_full::IprAccess            0      0.00%    100.00% # attempts to use FU when none available
system.switch_cpus_1.iq.fu_full::InstPrefetch            0      0.00%    100.00% # attempts to use FU when none available
system.switch_cpus_1.iq.int_alu_accesses   1526499348                       # Number of integer alu accesses
system.switch_cpus_1.iq.int_inst_queue_reads   3551952864                       # Number of integer instruction queue reads
system.switch_cpus_1.iq.int_inst_queue_wakeup_accesses   1516993347                       # Number of integer instruction queue wakeup accesses
system.switch_cpus_1.iq.int_inst_queue_writes   1533949953                       # Number of integer instruction queue writes
system.switch_cpus_1.iq.iqInstsAdded       1527674415                       # Number of instructions added to the IQ (excludes non-spec)
system.switch_cpus_1.iq.iqInstsIssued      1523142851                       # Number of instructions issued
system.switch_cpus_1.iq.iqNonSpecInstsAdded           12                       # Number of non-speculative instructions added to the IQ
system.switch_cpus_1.iq.iqSquashedInstsExamined     13540670                       # Number of squashed instructions iterated over during squash; mainly for profiling
system.switch_cpus_1.iq.iqSquashedInstsIssued       274281                       # Number of squashed instructions issued
system.switch_cpus_1.iq.iqSquashedNonSpecRemoved           12                       # Number of squashed non-spec instructions that were removed
system.switch_cpus_1.iq.iqSquashedOperandsExamined     21467547                       # Number of squashed operands that are examined and possibly removed from graph
system.switch_cpus_1.iq.issued_per_cycle::samples    506858482                       # Number of insts issued each cycle
system.switch_cpus_1.iq.issued_per_cycle::mean     3.005065                       # Number of insts issued each cycle
system.switch_cpus_1.iq.issued_per_cycle::stdev     2.363232                       # Number of insts issued each cycle
system.switch_cpus_1.iq.issued_per_cycle::underflows            0      0.00%      0.00% # Number of insts issued each cycle
system.switch_cpus_1.iq.issued_per_cycle::0    137661402     27.16%     27.16% # Number of insts issued each cycle
system.switch_cpus_1.iq.issued_per_cycle::1     19672513      3.88%     31.04% # Number of insts issued each cycle
system.switch_cpus_1.iq.issued_per_cycle::2     51497182     10.16%     41.20% # Number of insts issued each cycle
system.switch_cpus_1.iq.issued_per_cycle::3     74961298     14.79%     55.99% # Number of insts issued each cycle
system.switch_cpus_1.iq.issued_per_cycle::4     70814245     13.97%     69.96% # Number of insts issued each cycle
system.switch_cpus_1.iq.issued_per_cycle::5     71772456     14.16%     84.12% # Number of insts issued each cycle
system.switch_cpus_1.iq.issued_per_cycle::6     42490165      8.38%     92.50% # Number of insts issued each cycle
system.switch_cpus_1.iq.issued_per_cycle::7     25381938      5.01%     97.51% # Number of insts issued each cycle
system.switch_cpus_1.iq.issued_per_cycle::8     12607283      2.49%    100.00% # Number of insts issued each cycle
system.switch_cpus_1.iq.issued_per_cycle::overflows            0      0.00%    100.00% # Number of insts issued each cycle
system.switch_cpus_1.iq.issued_per_cycle::min_value            0                       # Number of insts issued each cycle
system.switch_cpus_1.iq.issued_per_cycle::max_value            8                       # Number of insts issued each cycle
system.switch_cpus_1.iq.issued_per_cycle::total    506858482                       # Number of insts issued each cycle
system.switch_cpus_1.iq.rate                 3.005057                       # Inst issue rate
system.switch_cpus_1.iq.vec_alu_accesses            0                       # Number of vector alu accesses
system.switch_cpus_1.iq.vec_inst_queue_reads            0                       # Number of vector instruction queue reads
system.switch_cpus_1.iq.vec_inst_queue_wakeup_accesses            0                       # Number of vector instruction queue wakeup accesses
system.switch_cpus_1.iq.vec_inst_queue_writes            0                       # Number of vector instruction queue writes
system.switch_cpus_1.itb.rdAccesses                 0                       # TLB accesses on read requests
system.switch_cpus_1.itb.rdMisses                   0                       # TLB misses on read requests
system.switch_cpus_1.itb.wrAccesses          78297506                       # TLB accesses on write requests
system.switch_cpus_1.itb.wrMisses                  35                       # TLB misses on write requests
system.switch_cpus_1.memDep0.conflictingLoads     25558025                       # Number of conflicting loads.
system.switch_cpus_1.memDep0.conflictingStores     39338540                       # Number of conflicting stores.
system.switch_cpus_1.memDep0.insertedLoads    431773638                       # Number of loads inserted to the mem dependence unit.
system.switch_cpus_1.memDep0.insertedStores    153637214                       # Number of stores inserted to the mem dependence unit.
system.switch_cpus_1.misc_regfile_reads     682825217                       # number of misc regfile reads
system.switch_cpus_1.numCycles              506859888                       # number of cpu cycles simulated
system.switch_cpus_1.numWorkItemsCompleted            0                       # number of work items this cpu completed
system.switch_cpus_1.numWorkItemsStarted            0                       # number of work items this cpu started
system.switch_cpus_1.rename.BlockCycles      23739659                       # Number of cycles rename is blocking
system.switch_cpus_1.rename.CommittedMaps   2109567968                       # Number of HB maps that are committed
system.switch_cpus_1.rename.IQFullEvents      3731965                       # Number of times rename has blocked due to IQ full
system.switch_cpus_1.rename.IdleCycles       48903318                       # Number of cycles rename is idle
system.switch_cpus_1.rename.LQFullEvents     88806258                       # Number of times rename has blocked due to LQ full
system.switch_cpus_1.rename.ROBFullEvents      9162705                       # Number of times rename has blocked due to ROB full
system.switch_cpus_1.rename.RenameLookups   5419069980                       # Number of register rename lookups that rename has made
system.switch_cpus_1.rename.RenamedInsts   1530531343                       # Number of instructions processed by rename
system.switch_cpus_1.rename.RenamedOperands   2131114797                       # Number of destination operands rename has renamed
system.switch_cpus_1.rename.RunCycles       169985802                       # Number of cycles rename is running
system.switch_cpus_1.rename.SQFullEvents    149248331                       # Number of times rename has blocked due to SQ full
system.switch_cpus_1.rename.SquashCycles       283938                       # Number of cycles rename is squashing
system.switch_cpus_1.rename.UnblockCycles    263945753                       # Number of cycles rename is unblocking
system.switch_cpus_1.rename.UndoneMaps       21546716                       # Number of HB maps that are undone due to squashing
system.switch_cpus_1.rename.fp_rename_lookups      9776406                       # Number of floating rename lookups
system.switch_cpus_1.rename.int_rename_lookups   3105891394                       # Number of integer rename lookups
system.switch_cpus_1.rename.serializeStallCycles            0                       # count of cycles rename stalled for serializing inst
system.switch_cpus_1.rename.serializingInsts            0                       # count of serializing insts renamed
system.switch_cpus_1.rename.skidInsts       296545690                       # count of insts added to the skid buffer
system.switch_cpus_1.rename.tempSerializingInsts            0                       # count of temporary serializing insts renamed
system.switch_cpus_1.rob.rob_reads         1908929912                       # The number of ROB reads
system.switch_cpus_1.rob.rob_writes        3057339077                       # The number of ROB writes
system.switch_cpus_1.timesIdled                    25                       # Number of times that the entire CPU went into an idle state and unscheduled itself
system.tol2bus.snoop_filter.hit_multi_requests          135                       # Number of requests hitting in the snoop filter with multiple (>1) holders of the requested data.
system.tol2bus.snoop_filter.hit_multi_snoops            0                       # Number of snoops hitting in the snoop filter with multiple (>1) holders of the requested data.
system.tol2bus.snoop_filter.hit_single_requests      6452850                       # Number of requests hitting in the snoop filter with a single holder of the requested data.
system.tol2bus.snoop_filter.hit_single_snoops        27141                       # Number of snoops hitting in the snoop filter with a single holder of the requested data.
system.tol2bus.snoop_filter.tot_requests     12902123                       # Total number of requests made to the snoop filter.
system.tol2bus.snoop_filter.tot_snoops          27141                       # Total number of snoops made to the snoop filter.
system.tol3bus.snoop_filter.hit_multi_requests            0                       # Number of requests hitting in the snoop filter with multiple (>1) holders of the requested data.
system.tol3bus.snoop_filter.hit_multi_snoops            0                       # Number of snoops hitting in the snoop filter with multiple (>1) holders of the requested data.
system.tol3bus.snoop_filter.hit_single_requests      3024179                       # Number of requests hitting in the snoop filter with a single holder of the requested data.
system.tol3bus.snoop_filter.hit_single_snoops        47279                       # Number of snoops hitting in the snoop filter with a single holder of the requested data.
system.tol3bus.snoop_filter.tot_requests      6048149                       # Total number of requests made to the snoop filter.
system.tol3bus.snoop_filter.tot_snoops          47279                       # Total number of snoops made to the snoop filter.
system.membus.trans_dist::ReadResp               8184                       # Transaction distribution
system.membus.trans_dist::WritebackDirty       398661                       # Transaction distribution
system.membus.trans_dist::CleanEvict             7436                       # Transaction distribution
system.membus.trans_dist::ReadExReq            398207                       # Transaction distribution
system.membus.trans_dist::ReadExResp           398207                       # Transaction distribution
system.membus.trans_dist::ReadSharedReq          8184                       # Transaction distribution
system.membus.pkt_count_system.l3.mem_side::system.mem_ctrls.port      1218879                       # Packet count per connected master and slave (bytes)
system.membus.pkt_count_system.l3.mem_side::total      1218879                       # Packet count per connected master and slave (bytes)
system.membus.pkt_count::total                1218879                       # Packet count per connected master and slave (bytes)
system.membus.pkt_size_system.l3.mem_side::system.mem_ctrls.port     51523328                       # Cumulative packet size per connected master and slave (bytes)
system.membus.pkt_size_system.l3.mem_side::total     51523328                       # Cumulative packet size per connected master and slave (bytes)
system.membus.pkt_size::total                51523328                       # Cumulative packet size per connected master and slave (bytes)
system.membus.snoops                                0                       # Total snoops (count)
system.membus.snoopTraffic                          0                       # Total snoop traffic (bytes)
system.membus.snoop_fanout::samples            406391                       # Request fanout histogram
system.membus.snoop_fanout::mean                    0                       # Request fanout histogram
system.membus.snoop_fanout::stdev                   0                       # Request fanout histogram
system.membus.snoop_fanout::underflows              0      0.00%      0.00% # Request fanout histogram
system.membus.snoop_fanout::0                  406391    100.00%    100.00% # Request fanout histogram
system.membus.snoop_fanout::1                       0      0.00%    100.00% # Request fanout histogram
system.membus.snoop_fanout::overflows               0      0.00%    100.00% # Request fanout histogram
system.membus.snoop_fanout::min_value               0                       # Request fanout histogram
system.membus.snoop_fanout::max_value               0                       # Request fanout histogram
system.membus.snoop_fanout::total              406391                       # Request fanout histogram
system.membus.reqLayer2.occupancy          2476294000                       # Layer occupancy (ticks)
system.membus.reqLayer2.utilization               1.0                       # Layer utilization (%)
system.membus.respLayer1.occupancy         2201032500                       # Layer occupancy (ticks)
system.membus.respLayer1.utilization              0.9                       # Layer utilization (%)
system.membus.power_state.pwrStateResidencyTicks::UNDEFINED 1317182225500                       # Cumulative time (in ticks) in various power states
system.switch_cpus_1.dtb.walker.power_state.pwrStateResidencyTicks::UNDEFINED 1317182225500                       # Cumulative time (in ticks) in various power states
system.switch_cpus_1.itb.walker.power_state.pwrStateResidencyTicks::UNDEFINED 1317182225500                       # Cumulative time (in ticks) in various power states
system.switch_cpus_1.power_state.pwrStateResidencyTicks::OFF 1317182225500                       # Cumulative time (in ticks) in various power states
system.switch_cpus.dtb.walker.power_state.pwrStateResidencyTicks::UNDEFINED 1317182225500                       # Cumulative time (in ticks) in various power states
system.switch_cpus.itb.walker.power_state.pwrStateResidencyTicks::UNDEFINED 1317182225500                       # Cumulative time (in ticks) in various power states
system.switch_cpus.power_state.numTransitions            1                       # Number of power state transitions
system.switch_cpus.power_state.pwrStateResidencyTicks::OFF 1317182225500                       # Cumulative time (in ticks) in various power states
system.tol2bus.trans_dist::ReadResp           3557992                       # Transaction distribution
system.tol2bus.trans_dist::WritebackDirty      8346190                       # Transaction distribution
system.tol2bus.trans_dist::WritebackClean           75                       # Transaction distribution
system.tol2bus.trans_dist::CleanEvict         1182726                       # Transaction distribution
system.tol2bus.trans_dist::UpgradeReq            3578                       # Transaction distribution
system.tol2bus.trans_dist::UpgradeResp           3578                       # Transaction distribution
system.tol2bus.trans_dist::ReadExReq          2891280                       # Transaction distribution
system.tol2bus.trans_dist::ReadExResp         2891280                       # Transaction distribution
system.tol2bus.trans_dist::ReadCleanReq            75                       # Transaction distribution
system.tol2bus.trans_dist::ReadSharedReq      3557918                       # Transaction distribution
system.tol2bus.pkt_count_system.cpu.icache.mem_side::system.l2.cpu_side          225                       # Packet count per connected master and slave (bytes)
system.tol2bus.pkt_count_system.cpu.dcache.mem_side::system.l2.cpu_side     19354748                       # Packet count per connected master and slave (bytes)
system.tol2bus.pkt_count::total              19354973                       # Packet count per connected master and slave (bytes)
system.tol2bus.pkt_size_system.cpu.icache.mem_side::system.l2.cpu_side         9600                       # Cumulative packet size per connected master and slave (bytes)
system.tol2bus.pkt_size_system.cpu.dcache.mem_side::system.l2.cpu_side    760595456                       # Cumulative packet size per connected master and slave (bytes)
system.tol2bus.pkt_size::total              760605056                       # Cumulative packet size per connected master and slave (bytes)
system.tol2bus.snoops                         3079719                       # Total snoops (count)
system.tol2bus.snoopTraffic                 186309312                       # Total snoop traffic (bytes)
system.tol2bus.snoop_fanout::samples          9532570                       # Request fanout histogram
system.tol2bus.snoop_fanout::mean            0.002861                       # Request fanout histogram
system.tol2bus.snoop_fanout::stdev           0.053415                       # Request fanout histogram
system.tol2bus.snoop_fanout::underflows             0      0.00%      0.00% # Request fanout histogram
system.tol2bus.snoop_fanout::0                9505294     99.71%     99.71% # Request fanout histogram
system.tol2bus.snoop_fanout::1                  27276      0.29%    100.00% # Request fanout histogram
system.tol2bus.snoop_fanout::2                      0      0.00%    100.00% # Request fanout histogram
system.tol2bus.snoop_fanout::3                      0      0.00%    100.00% # Request fanout histogram
system.tol2bus.snoop_fanout::4                      0      0.00%    100.00% # Request fanout histogram
system.tol2bus.snoop_fanout::overflows              0      0.00%    100.00% # Request fanout histogram
system.tol2bus.snoop_fanout::min_value              0                       # Request fanout histogram
system.tol2bus.snoop_fanout::max_value              1                       # Request fanout histogram
system.tol2bus.snoop_fanout::total            9532570                       # Request fanout histogram
system.tol2bus.reqLayer0.occupancy        11886243500                       # Layer occupancy (ticks)
system.tol2bus.reqLayer0.utilization              4.7                       # Layer utilization (%)
system.tol2bus.respLayer1.occupancy        9675584500                       # Layer occupancy (ticks)
system.tol2bus.respLayer1.utilization             3.8                       # Layer utilization (%)
system.tol2bus.respLayer0.occupancy            112500                       # Layer occupancy (ticks)
system.tol2bus.respLayer0.utilization             0.0                       # Layer utilization (%)
system.tol2bus.power_state.pwrStateResidencyTicks::UNDEFINED 1317182225500                       # Cumulative time (in ticks) in various power states
system.voltage_domain.voltage                       1                       # Voltage in Volts
system.clk_domain.clock                          1000                       # Clock period in ticks
system.l2.demand_hits::.switch_cpus_1.inst            2                       # number of demand (read+write) hits
system.l2.demand_hits::.switch_cpus_1.data      3425166                       # number of demand (read+write) hits
system.l2.demand_hits::total                  3425168                       # number of demand (read+write) hits
system.l2.overall_hits::.switch_cpus_1.inst            2                       # number of overall hits
system.l2.overall_hits::.switch_cpus_1.data      3425166                       # number of overall hits
system.l2.overall_hits::total                 3425168                       # number of overall hits
system.l2.demand_misses::.switch_cpus_1.inst           73                       # number of demand (read+write) misses
system.l2.demand_misses::.switch_cpus_1.data      3024032                       # number of demand (read+write) misses
system.l2.demand_misses::total                3024105                       # number of demand (read+write) misses
system.l2.overall_misses::.switch_cpus_1.inst           73                       # number of overall misses
system.l2.overall_misses::.switch_cpus_1.data      3024032                       # number of overall misses
system.l2.overall_misses::total               3024105                       # number of overall misses
system.l2.demand_miss_latency::.switch_cpus_1.inst      8351000                       # number of demand (read+write) miss cycles
system.l2.demand_miss_latency::.switch_cpus_1.data  96487138500                       # number of demand (read+write) miss cycles
system.l2.demand_miss_latency::total      96495489500                       # number of demand (read+write) miss cycles
system.l2.overall_miss_latency::.switch_cpus_1.inst      8351000                       # number of overall miss cycles
system.l2.overall_miss_latency::.switch_cpus_1.data  96487138500                       # number of overall miss cycles
system.l2.overall_miss_latency::total     96495489500                       # number of overall miss cycles
system.l2.demand_accesses::.switch_cpus_1.inst           75                       # number of demand (read+write) accesses
system.l2.demand_accesses::.switch_cpus_1.data      6449198                       # number of demand (read+write) accesses
system.l2.demand_accesses::total              6449273                       # number of demand (read+write) accesses
system.l2.overall_accesses::.switch_cpus_1.inst           75                       # number of overall (read+write) accesses
system.l2.overall_accesses::.switch_cpus_1.data      6449198                       # number of overall (read+write) accesses
system.l2.overall_accesses::total             6449273                       # number of overall (read+write) accesses
system.l2.demand_miss_rate::.switch_cpus_1.inst     0.973333                       # miss rate for demand accesses
system.l2.demand_miss_rate::.switch_cpus_1.data     0.468900                       # miss rate for demand accesses
system.l2.demand_miss_rate::total            0.468906                       # miss rate for demand accesses
system.l2.overall_miss_rate::.switch_cpus_1.inst     0.973333                       # miss rate for overall accesses
[...]
system.cpu.dcache.overall_accesses::total   1194382346                       # number of overall (read+write) accesses
system.cpu.dcache.demand_miss_rate::.cpu.data     0.011307                       # miss rate for demand accesses
system.cpu.dcache.demand_miss_rate::.switch_cpus.data     0.010975                       # miss rate for demand accesses
system.cpu.dcache.demand_miss_rate::.switch_cpus_1.data     0.013322                       # miss rate for demand accesses
system.cpu.dcache.demand_miss_rate::total     0.012230                       # miss rate for demand accesses
system.cpu.dcache.overall_miss_rate::.cpu.data     0.011310                       # miss rate for overall accesses
system.cpu.dcache.overall_miss_rate::.switch_cpus.data     0.010975                       # miss rate for overall accesses
system.cpu.dcache.overall_miss_rate::.switch_cpus_1.data     0.013322                       # miss rate for overall accesses
system.cpu.dcache.overall_miss_rate::total     0.012231                       # miss rate for overall accesses
system.cpu.dcache.demand_avg_miss_latency::.switch_cpus.data 19189.279234                       # average overall miss latency
system.cpu.dcache.demand_avg_miss_latency::.switch_cpus_1.data 17775.685951                       # average overall miss latency
system.cpu.dcache.demand_avg_miss_latency::total  9862.606780                       # average overall miss latency
system.cpu.dcache.overall_avg_miss_latency::.switch_cpus.data 19189.279234                       # average overall miss latency
system.cpu.dcache.overall_avg_miss_latency::.switch_cpus_1.data 17775.685951                       # average overall miss latency
system.cpu.dcache.overall_avg_miss_latency::total  9861.622432                       # average overall miss latency
system.cpu.dcache.blocked_cycles::no_mshrs       369866                       # number of cycles access was blocked
system.cpu.dcache.blocked_cycles::no_targets           89                       # number of cycles access was blocked
system.cpu.dcache.blocked::no_mshrs             53333                       # number of cycles access was blocked
system.cpu.dcache.blocked::no_targets               2                       # number of cycles access was blocked
system.cpu.dcache.avg_blocked_cycles::no_mshrs     6.935031                       # average number of cycles each access was blocked
system.cpu.dcache.avg_blocked_cycles::no_targets    44.500000                       # average number of cycles each access was blocked
system.cpu.dcache.writebacks::.writebacks     12085580                       # number of writebacks
system.cpu.dcache.writebacks::total          12085580                       # number of writebacks
system.cpu.dcache.demand_mshr_hits::.switch_cpus_1.data       961493                       # number of demand (read+write) MSHR hits
system.cpu.dcache.demand_mshr_hits::total       961493                       # number of demand (read+write) MSHR hits
system.cpu.dcache.overall_mshr_hits::.switch_cpus_1.data       961493                       # number of overall MSHR hits
system.cpu.dcache.overall_mshr_hits::total       961493                       # number of overall MSHR hits
system.cpu.dcache.demand_mshr_misses::.switch_cpus.data       639320                       # number of demand (read+write) MSHR misses
system.cpu.dcache.demand_mshr_misses::.switch_cpus_1.data      6452772                       # number of demand (read+write) MSHR misses
system.cpu.dcache.demand_mshr_misses::total      7092092                       # number of demand (read+write) MSHR misses
system.cpu.dcache.overall_mshr_misses::.switch_cpus.data       639320                       # number of overall MSHR misses
system.cpu.dcache.overall_mshr_misses::.switch_cpus_1.data      6452772                       # number of overall MSHR misses
system.cpu.dcache.overall_mshr_misses::total      7092092                       # number of overall MSHR misses
system.cpu.dcache.demand_mshr_miss_latency::.switch_cpus.data  11948430000                       # number of demand (read+write) MSHR miss cycles
system.cpu.dcache.demand_mshr_miss_latency::.switch_cpus_1.data 122857349473                       # number of demand (read+write) MSHR miss cycles
system.cpu.dcache.demand_mshr_miss_latency::total 134805779473                       # number of demand (read+write) MSHR miss cycles
system.cpu.dcache.overall_mshr_miss_latency::.switch_cpus.data  11948430000                       # number of overall MSHR miss cycles
system.cpu.dcache.overall_mshr_miss_latency::.switch_cpus_1.data 122857349473                       # number of overall MSHR miss cycles
system.cpu.dcache.overall_mshr_miss_latency::total 134805779473                       # number of overall MSHR miss cycles
system.cpu.dcache.demand_mshr_miss_rate::.switch_cpus.data     0.010975                       # mshr miss rate for demand accesses
system.cpu.dcache.demand_mshr_miss_rate::.switch_cpus_1.data     0.011594                       # mshr miss rate for demand accesses
system.cpu.dcache.demand_mshr_miss_rate::total     0.005938                       # mshr miss rate for demand accesses
system.cpu.dcache.overall_mshr_miss_rate::.switch_cpus.data     0.010975                       # mshr miss rate for overall accesses
system.cpu.dcache.overall_mshr_miss_rate::.switch_cpus_1.data     0.011594                       # mshr miss rate for overall accesses
system.cpu.dcache.overall_mshr_miss_rate::total     0.005938                       # mshr miss rate for overall accesses
system.cpu.dcache.demand_avg_mshr_miss_latency::.switch_cpus.data 18689.279234                       # average overall mshr miss latency
system.cpu.dcache.demand_avg_mshr_miss_latency::.switch_cpus_1.data 19039.468537                       # average overall mshr miss latency
system.cpu.dcache.demand_avg_mshr_miss_latency::total 19007.900556                       # average overall mshr miss latency
system.cpu.dcache.overall_avg_mshr_miss_latency::.switch_cpus.data 18689.279234                       # average overall mshr miss latency
system.cpu.dcache.overall_avg_mshr_miss_latency::.switch_cpus_1.data 19039.468537                       # average overall mshr miss latency
system.cpu.dcache.overall_avg_mshr_miss_latency::total 19007.900556                       # average overall mshr miss latency
system.cpu.dcache.replacements               13642486                       # number of replacements
system.cpu.dcache.ReadReq_hits::.cpu.data    422800783                       # number of ReadReq hits
system.cpu.dcache.ReadReq_hits::.switch_cpus.data     42592000                       # number of ReadReq hits
system.cpu.dcache.ReadReq_hits::.switch_cpus_1.data    399011008                       # number of ReadReq hits
system.cpu.dcache.ReadReq_hits::total       864403791                       # number of ReadReq hits
system.cpu.dcache.ReadReq_misses::.cpu.data      3686913                       # number of ReadReq misses
system.cpu.dcache.ReadReq_misses::.switch_cpus.data       349627                       # number of ReadReq misses
system.cpu.dcache.ReadReq_misses::.switch_cpus_1.data      4514698                       # number of ReadReq misses
system.cpu.dcache.ReadReq_misses::total       8551238                       # number of ReadReq misses
system.cpu.dcache.ReadReq_miss_latency::.switch_cpus.data   2744590000                       # number of ReadReq miss cycles
system.cpu.dcache.ReadReq_miss_latency::.switch_cpus_1.data  34239556500                       # number of ReadReq miss cycles
system.cpu.dcache.ReadReq_miss_latency::total  36984146500                       # number of ReadReq miss cycles
system.cpu.dcache.ReadReq_accesses::.cpu.data    426487696                       # number of ReadReq accesses(hits+misses)
system.cpu.dcache.ReadReq_accesses::.switch_cpus.data     42941627                       # number of ReadReq accesses(hits+misses)
system.cpu.dcache.ReadReq_accesses::.switch_cpus_1.data    403525706                       # number of ReadReq accesses(hits+misses)
system.cpu.dcache.ReadReq_accesses::total    872955029                       # number of ReadReq accesses(hits+misses)
system.cpu.dcache.ReadReq_miss_rate::.cpu.data     0.008645                       # miss rate for ReadReq accesses
system.cpu.dcache.ReadReq_miss_rate::.switch_cpus.data     0.008142                       # miss rate for ReadReq accesses
system.cpu.dcache.ReadReq_miss_rate::.switch_cpus_1.data     0.011188                       # miss rate for ReadReq accesses
system.cpu.dcache.ReadReq_miss_rate::total     0.009796                       # miss rate for ReadReq accesses
system.cpu.dcache.ReadReq_avg_miss_latency::.switch_cpus.data  7850.051626                       # average ReadReq miss latency
system.cpu.dcache.ReadReq_avg_miss_latency::.switch_cpus_1.data  7584.019241                       # average ReadReq miss latency
system.cpu.dcache.ReadReq_avg_miss_latency::total  4325.004929                       # average ReadReq miss latency
system.cpu.dcache.ReadReq_mshr_hits::.switch_cpus_1.data       956779                       # number of ReadReq MSHR hits
system.cpu.dcache.ReadReq_mshr_hits::total       956779                       # number of ReadReq MSHR hits
system.cpu.dcache.ReadReq_mshr_misses::.switch_cpus.data       349627                       # number of ReadReq MSHR misses
system.cpu.dcache.ReadReq_mshr_misses::.switch_cpus_1.data      3557919                       # number of ReadReq MSHR misses
system.cpu.dcache.ReadReq_mshr_misses::total      3907546                       # number of ReadReq MSHR misses
system.cpu.dcache.ReadReq_mshr_miss_latency::.switch_cpus.data   2569776500                       # number of ReadReq MSHR miss cycles
system.cpu.dcache.ReadReq_mshr_miss_latency::.switch_cpus_1.data  26778602000                       # number of ReadReq MSHR miss cycles
system.cpu.dcache.ReadReq_mshr_miss_latency::total  29348378500                       # number of ReadReq MSHR miss cycles
system.cpu.dcache.ReadReq_mshr_miss_rate::.switch_cpus.data     0.008142                       # mshr miss rate for ReadReq accesses
system.cpu.dcache.ReadReq_mshr_miss_rate::.switch_cpus_1.data     0.008817                       # mshr miss rate for ReadReq accesses
system.cpu.dcache.ReadReq_mshr_miss_rate::total     0.004476                       # mshr miss rate for ReadReq accesses
system.cpu.dcache.ReadReq_avg_mshr_miss_latency::.switch_cpus.data  7350.051626                       # average ReadReq mshr miss latency
system.cpu.dcache.ReadReq_avg_mshr_miss_latency::.switch_cpus_1.data  7526.478821                       # average ReadReq mshr miss latency
system.cpu.dcache.ReadReq_avg_mshr_miss_latency::total  7510.693028                       # average ReadReq mshr miss latency
system.cpu.dcache.WriteReq_hits::.cpu.data    150214234                       # number of WriteReq hits
system.cpu.dcache.WriteReq_hits::.switch_cpus.data     15018602                       # number of WriteReq hits
system.cpu.dcache.WriteReq_hits::.switch_cpus_1.data    150133501                       # number of WriteReq hits
system.cpu.dcache.WriteReq_hits::total      315366337                       # number of WriteReq hits
system.cpu.dcache.WriteReq_misses::.cpu.data      2866364                       # number of WriteReq misses
system.cpu.dcache.WriteReq_misses::.switch_cpus.data       289693                       # number of WriteReq misses
system.cpu.dcache.WriteReq_misses::.switch_cpus_1.data      2899567                       # number of WriteReq misses
system.cpu.dcache.WriteReq_misses::total      6055624                       # number of WriteReq misses
system.cpu.dcache.WriteReq_miss_latency::.switch_cpus.data   9523500000                       # number of WriteReq miss cycles
system.cpu.dcache.WriteReq_miss_latency::.switch_cpus_1.data  97554089699                       # number of WriteReq miss cycles
system.cpu.dcache.WriteReq_miss_latency::total 107077589699                       # number of WriteReq miss cycles
system.cpu.dcache.WriteReq_accesses::.cpu.data    153080598                       # number of WriteReq accesses(hits+misses)
system.cpu.dcache.WriteReq_accesses::.switch_cpus.data     15308295                       # number of WriteReq accesses(hits+misses)
system.cpu.dcache.WriteReq_accesses::.switch_cpus_1.data    153033068                       # number of WriteReq accesses(hits+misses)
system.cpu.dcache.WriteReq_accesses::total    321421961                       # number of WriteReq accesses(hits+misses)
system.cpu.dcache.WriteReq_miss_rate::.cpu.data     0.018725                       # miss rate for WriteReq accesses
system.cpu.dcache.WriteReq_miss_rate::.switch_cpus.data     0.018924                       # miss rate for WriteReq accesses
system.cpu.dcache.WriteReq_miss_rate::.switch_cpus_1.data     0.018947                       # miss rate for WriteReq accesses
system.cpu.dcache.WriteReq_miss_rate::total     0.018840                       # miss rate for WriteReq accesses
system.cpu.dcache.WriteReq_avg_miss_latency::.switch_cpus.data 32874.456752                       # average WriteReq miss latency
system.cpu.dcache.WriteReq_avg_miss_latency::.switch_cpus_1.data 33644.364727                       # average WriteReq miss latency
system.cpu.dcache.WriteReq_avg_miss_latency::total 17682.337889                       # average WriteReq miss latency
system.cpu.dcache.WriteReq_mshr_hits::.switch_cpus_1.data         4714                       # number of WriteReq MSHR hits
system.cpu.dcache.WriteReq_mshr_hits::total         4714                       # number of WriteReq MSHR hits
system.cpu.dcache.WriteReq_mshr_misses::.switch_cpus.data       289693                       # number of WriteReq MSHR misses
system.cpu.dcache.WriteReq_mshr_misses::.switch_cpus_1.data      2894853                       # number of WriteReq MSHR misses
system.cpu.dcache.WriteReq_mshr_misses::total      3184546                       # number of WriteReq MSHR misses
system.cpu.dcache.WriteReq_mshr_miss_latency::.switch_cpus.data   9378653500                       # number of WriteReq MSHR miss cycles
system.cpu.dcache.WriteReq_mshr_miss_latency::.switch_cpus_1.data  96078747473                       # number of WriteReq MSHR miss cycles
system.cpu.dcache.WriteReq_mshr_miss_latency::total 105457400973                       # number of WriteReq MSHR miss cycles
system.cpu.dcache.WriteReq_mshr_miss_rate::.switch_cpus.data     0.018924                       # mshr miss rate for WriteReq accesses
system.cpu.dcache.WriteReq_mshr_miss_rate::.switch_cpus_1.data     0.018917                       # mshr miss rate for WriteReq accesses
system.cpu.dcache.WriteReq_mshr_miss_rate::total     0.009908                       # mshr miss rate for WriteReq accesses
system.cpu.dcache.WriteReq_avg_mshr_miss_latency::.switch_cpus.data 32374.456752                       # average WriteReq mshr miss latency
system.cpu.dcache.WriteReq_avg_mshr_miss_latency::.switch_cpus_1.data 33189.508232                       # average WriteReq mshr miss latency
system.cpu.dcache.WriteReq_avg_mshr_miss_latency::total 33115.364317                       # average WriteReq mshr miss latency
system.cpu.dcache.SoftPFReq_hits::.cpu.data         3898                       # number of SoftPFReq hits
system.cpu.dcache.SoftPFReq_hits::total          3898                       # number of SoftPFReq hits
system.cpu.dcache.SoftPFReq_misses::.cpu.data         1458                       # number of SoftPFReq misses
system.cpu.dcache.SoftPFReq_misses::total         1458                       # number of SoftPFReq misses
system.cpu.dcache.SoftPFReq_accesses::.cpu.data         5356                       # number of SoftPFReq accesses(hits+misses)
system.cpu.dcache.SoftPFReq_accesses::total         5356                       # number of SoftPFReq accesses(hits+misses)
system.cpu.dcache.SoftPFReq_miss_rate::.cpu.data     0.272218                       # miss rate for SoftPFReq accesses
system.cpu.dcache.SoftPFReq_miss_rate::total     0.272218                       # miss rate for SoftPFReq accesses
system.cpu.dcache.power_state.pwrStateResidencyTicks::UNDEFINED 1317182225500                       # Cumulative time (in ticks) in various power states
system.cpu.dcache.tags.tagsinuse           511.995239                       # Cycle average of tags in use
system.cpu.dcache.tags.total_refs          1193421116                       # Total number of references to valid blocks.
system.cpu.dcache.tags.sampled_refs          13642998                       # Sample count of references to valid blocks.
system.cpu.dcache.tags.avg_refs             87.474990                       # Average number of references to valid blocks.
system.cpu.dcache.tags.warmup_cycle              1500                       # Cycle when the warmup percentage was hit.
system.cpu.dcache.tags.occ_blocks::.cpu.data   370.871730                       # Average occupied blocks per requestor
system.cpu.dcache.tags.occ_blocks::.switch_cpus.data    42.635529                       # Average occupied blocks per requestor
system.cpu.dcache.tags.occ_blocks::.switch_cpus_1.data    98.487980                       # Average occupied blocks per requestor
system.cpu.dcache.tags.occ_percent::.cpu.data     0.724359                       # Average percentage of cache occupancy
system.cpu.dcache.tags.occ_percent::.switch_cpus.data     0.083273                       # Average percentage of cache occupancy
system.cpu.dcache.tags.occ_percent::.switch_cpus_1.data     0.192359                       # Average percentage of cache occupancy
system.cpu.dcache.tags.occ_percent::total     0.999991                       # Average percentage of cache occupancy
system.cpu.dcache.tags.occ_task_id_blocks::1024          512                       # Occupied blocks per task id
system.cpu.dcache.tags.age_task_id_blocks_1024::0          189                       # Occupied blocks per task id
system.cpu.dcache.tags.age_task_id_blocks_1024::1          280                       # Occupied blocks per task id
system.cpu.dcache.tags.age_task_id_blocks_1024::2           43                       # Occupied blocks per task id
system.cpu.dcache.tags.occ_task_id_percent::1024            1                       # Percentage of cache occupancy per task id
system.cpu.dcache.tags.tag_accesses        4791172382                       # Number of tag accesses
system.cpu.dcache.tags.data_accesses       4791172382                       # Number of data accesses
system.cpu.dcache.tags.cache_friendly               0                       # Number of cache friendly accesses
system.cpu.dcache.tags.cache_averse        1193421116                       # Number of cache averse accesses
system.cpu.dcache.tags.cache_friendly_victims            0                       # Number of cache friendly victims
system.cpu.dcache.tags.cache_averse_victims     13642998                       # Number of cache averse victims
system.cpu.dcache.tags.OPT_hits                     0                       # Number of OPT hits
system.cpu.dcache.tags.OPT_misses                   0                       # Number of OPT misses
system.cpu.dcache.tags.OPT_nan             1194382346                       # Number of OPT nan
system.cpu.dcache.tags.power_state.pwrStateResidencyTicks::UNDEFINED 1317182225500                       # Cumulative time (in ticks) in various power states
system.cpu.power_state.numTransitions               2                       # Number of power state transitions
system.cpu.power_state.pwrStateResidencyTicks::ON 953490921500                       # Cumulative time (in ticks) in various power states
system.cpu.power_state.pwrStateResidencyTicks::OFF 363691304000                       # Cumulative time (in ticks) in various power states

---------- End Simulation Statistics   ----------
