
---------- Begin Simulation Statistics ----------
final_tick                               1208775668000                       # Number of ticks from beginning of simulation (restored from checkpoints and never reset)
host_inst_rate                                 872380                       # Simulator instruction rate (inst/s)
host_mem_usage                                 766380                       # Number of bytes of host memory used
host_op_rate                                  1326464                       # Simulator op (including micro ops) rate (op/s)
host_seconds                                  1739.56                       # Real time elapsed on the host
host_tick_rate                               78918808                       # Simulator tick rate (ticks/s)
sim_freq                                 1000000000000                       # Frequency of simulated ticks
sim_insts                                  1517555222                       # Number of instructions simulated
sim_ops                                    2307460711                       # Number of ops (including micro ops) simulated
sim_seconds                                  0.137284                       # Number of seconds simulated
sim_ticks                                137283854000                       # Number of ticks simulated
system.cpu.committedInsts                           0                       # Number of instructions committed
system.cpu.committedOps                             0                       # Number of ops (including micro ops) committed
system.cpu.dtb.rdAccesses                           0                       # TLB accesses on read requests
system.cpu.dtb.rdMisses                             0                       # TLB misses on read requests
system.cpu.dtb.wrAccesses                           0                       # TLB accesses on write requests
system.cpu.dtb.wrMisses                             0                       # TLB misses on write requests
system.cpu.idle_fraction                            0                       # Percentage of idle cycles
system.cpu.itb.rdAccesses                           0                       # TLB accesses on read requests
system.cpu.itb.rdMisses                             0                       # TLB misses on read requests
system.cpu.itb.wrAccesses                           0                       # TLB accesses on write requests
system.cpu.itb.wrMisses                             0                       # TLB misses on write requests
system.cpu.not_idle_fraction                        1                       # Percentage of non-idle cycles
system.cpu.numCycles                                0                       # number of cpu cycles simulated
system.cpu.numWorkItemsCompleted                    0                       # number of work items this cpu completed
system.cpu.numWorkItemsStarted                      0                       # number of work items this cpu started
system.cpu.num_busy_cycles                          0                       # Number of busy cycles
system.cpu.num_conditional_control_insts            0                       # number of instructions that are conditional controls
system.cpu.num_fp_alu_accesses                      0                       # Number of float alu accesses
system.cpu.num_fp_insts                             0                       # number of float instructions
system.cpu.num_fp_register_reads                    0                       # number of times the floating registers were read
system.cpu.num_fp_register_writes                   0                       # number of times the floating registers were written
system.cpu.num_func_calls                           0                       # number of times a function call or return occured
system.cpu.num_idle_cycles                          0                       # Number of idle cycles
system.cpu.num_int_alu_accesses                     0                       # Number of integer alu accesses
system.cpu.num_int_insts                            0                       # number of integer instructions
system.cpu.num_int_register_reads                   0                       # number of times the integer registers were read
system.cpu.num_int_register_writes                  0                       # number of times the integer registers were written
system.cpu.num_load_insts                           0                       # Number of load instructions
system.cpu.num_mem_refs                             0                       # number of memory refs
system.cpu.num_store_insts                          0                       # Number of store instructions
system.cpu.num_vec_alu_accesses                     0                       # Number of vector alu accesses
system.cpu.num_vec_insts                            0                       # number of vector instructions
system.cpu.num_vec_register_reads                   0                       # number of times the vector registers were read
system.cpu.num_vec_register_writes                  0                       # number of times the vector registers were written
system.cpu.op_class::No_OpClass                     0                       # Class of executed instruction
system.cpu.op_class::IntAlu                         0                       # Class of executed instruction
system.cpu.op_class::IntMult                        0                       # Class of executed instruction
system.cpu.op_class::IntDiv                         0                       # Class of executed instruction
system.cpu.op_class::FloatAdd                       0                       # Class of executed instruction
system.cpu.op_class::FloatCmp                       0                       # Class of executed instruction
system.cpu.op_class::FloatCvt                       0                       # Class of executed instruction
system.cpu.op_class::FloatMult                      0                       # Class of executed instruction
system.cpu.op_class::FloatMultAcc                   0                       # Class of executed instruction
system.cpu.op_class::FloatDiv                       0                       # Class of executed instruction
system.cpu.op_class::FloatMisc                      0                       # Class of executed instruction
system.cpu.op_class::FloatSqrt                      0                       # Class of executed instruction
system.cpu.op_class::SimdAdd                        0                       # Class of executed instruction
system.cpu.op_class::SimdAddAcc                     0                       # Class of executed instruction
system.cpu.op_class::SimdAlu                        0                       # Class of executed instruction
system.cpu.op_class::SimdCmp                        0                       # Class of executed instruction
system.cpu.op_class::SimdCvt                        0                       # Class of executed instruction
system.cpu.op_class::SimdMisc                       0                       # Class of executed instruction
system.cpu.op_class::SimdMult                       0                       # Class of executed instruction
system.cpu.op_class::SimdMultAcc                    0                       # Class of executed instruction
system.cpu.op_class::SimdShift                      0                       # Class of executed instruction
system.cpu.op_class::SimdShiftAcc                   0                       # Class of executed instruction
system.cpu.op_class::SimdDiv                        0                       # Class of executed instruction
system.cpu.op_class::SimdSqrt                       0                       # Class of executed instruction
system.cpu.op_class::SimdFloatAdd                   0                       # Class of executed instruction
system.cpu.op_class::SimdFloatAlu                   0                       # Class of executed instruction
system.cpu.op_class::SimdFloatCmp                   0                       # Class of executed instruction
system.cpu.op_class::SimdFloatCvt                   0                       # Class of executed instruction
system.cpu.op_class::SimdFloatDiv                   0                       # Class of executed instruction
system.cpu.op_class::SimdFloatMisc                  0                       # Class of executed instruction
system.cpu.op_class::SimdFloatMult                  0                       # Class of executed instruction
system.cpu.op_class::SimdFloatMultAcc               0                       # Class of executed instruction
system.cpu.op_class::SimdFloatSqrt                  0                       # Class of executed instruction
system.cpu.op_class::SimdReduceAdd                  0                       # Class of executed instruction
system.cpu.op_class::SimdReduceAlu                  0                       # Class of executed instruction
system.cpu.op_class::SimdReduceCmp                  0                       # Class of executed instruction
system.cpu.op_class::SimdFloatReduceAdd             0                       # Class of executed instruction
system.cpu.op_class::SimdFloatReduceCmp             0                       # Class of executed instruction
system.cpu.op_class::SimdAes                        0                       # Class of executed instruction
system.cpu.op_class::SimdAesMix                     0                       # Class of executed instruction
system.cpu.op_class::SimdSha1Hash                   0                       # Class of executed instruction
system.cpu.op_class::SimdSha1Hash2                  0                       # Class of executed instruction
system.cpu.op_class::SimdSha256Hash                 0                       # Class of executed instruction
system.cpu.op_class::SimdSha256Hash2                0                       # Class of executed instruction
system.cpu.op_class::SimdShaSigma2                  0                       # Class of executed instruction
system.cpu.op_class::SimdShaSigma3                  0                       # Class of executed instruction
system.cpu.op_class::SimdPredAlu                    0                       # Class of executed instruction
system.cpu.op_class::MemRead                        0                       # Class of executed instruction
system.cpu.op_class::MemWrite                       0                       # Class of executed instruction
system.cpu.op_class::FloatMemRead                   0                       # Class of executed instruction
system.cpu.op_class::FloatMemWrite                  0                       # Class of executed instruction
system.cpu.op_class::IprAccess                      0                       # Class of executed instruction
system.cpu.op_class::InstPrefetch                   0                       # Class of executed instruction
system.cpu.op_class::total                          0                       # Class of executed instruction
system.cpu.workload.numSyscalls                     0                       # Number of system calls
system.membus.snoop_filter.hit_multi_requests            0                       # Number of requests hitting in the snoop filter with multiple (>1) holders of the requested data.
system.membus.snoop_filter.hit_multi_snoops            0                       # Number of snoops hitting in the snoop filter with multiple (>1) holders of the requested data.
system.membus.snoop_filter.hit_single_requests       650045                       # Number of requests hitting in the snoop filter with a single holder of the requested data.
system.membus.snoop_filter.hit_single_snoops            0                       # Number of snoops hitting in the snoop filter with a single holder of the requested data.
system.membus.snoop_filter.tot_requests       1300337                       # Total number of requests made to the snoop filter.
system.membus.snoop_filter.tot_snoops               0                       # Total number of snoops made to the snoop filter.
system.switch_cpus.committedInsts                   0                       # Number of instructions committed
system.switch_cpus.committedOps                     0                       # Number of ops (including micro ops) committed
system.switch_cpus.dtb.rdAccesses                   0                       # TLB accesses on read requests
system.switch_cpus.dtb.rdMisses                     0                       # TLB misses on read requests
system.switch_cpus.dtb.wrAccesses                   0                       # TLB accesses on write requests
system.switch_cpus.dtb.wrMisses                     0                       # TLB misses on write requests
system.switch_cpus.idle_fraction                    0                       # Percentage of idle cycles
system.switch_cpus.itb.rdAccesses                   0                       # TLB accesses on read requests
system.switch_cpus.itb.rdMisses                     0                       # TLB misses on read requests
system.switch_cpus.itb.wrAccesses                   0                       # TLB accesses on write requests
system.switch_cpus.itb.wrMisses                     0                       # TLB misses on write requests
system.switch_cpus.not_idle_fraction                1                       # Percentage of non-idle cycles
system.switch_cpus.numCycles                        0                       # number of cpu cycles simulated
system.switch_cpus.numWorkItemsCompleted            0                       # number of work items this cpu completed
system.switch_cpus.numWorkItemsStarted              0                       # number of work items this cpu started
system.switch_cpus.num_busy_cycles                  0                       # Number of busy cycles
system.switch_cpus.num_conditional_control_insts            0                       # number of instructions that are conditional controls
system.switch_cpus.num_fp_alu_accesses              0                       # Number of float alu accesses
system.switch_cpus.num_fp_insts                     0                       # number of float instructions
system.switch_cpus.num_fp_register_reads            0                       # number of times the floating registers were read
system.switch_cpus.num_fp_register_writes            0                       # number of times the floating registers were written
system.switch_cpus.num_func_calls                   0                       # number of times a function call or return occured
system.switch_cpus.num_idle_cycles                  0                       # Number of idle cycles
system.switch_cpus.num_int_alu_accesses             0                       # Number of integer alu accesses
system.switch_cpus.num_int_insts                    0                       # number of integer instructions
system.switch_cpus.num_int_register_reads            0                       # number of times the integer registers were read
system.switch_cpus.num_int_register_writes            0                       # number of times the integer registers were written
system.switch_cpus.num_load_insts                   0                       # Number of load instructions
system.switch_cpus.num_mem_refs                     0                       # number of memory refs
system.switch_cpus.num_store_insts                  0                       # Number of store instructions
system.switch_cpus.num_vec_alu_accesses             0                       # Number of vector alu accesses
system.switch_cpus.num_vec_insts                    0                       # number of vector instructions
system.switch_cpus.num_vec_register_reads            0                       # number of times the vector registers were read
system.switch_cpus.num_vec_register_writes            0                       # number of times the vector registers were written
system.switch_cpus.op_class::No_OpClass             0                       # Class of executed instruction
system.switch_cpus.op_class::IntAlu                 0                       # Class of executed instruction
system.switch_cpus.op_class::IntMult                0                       # Class of executed instruction
system.switch_cpus.op_class::IntDiv                 0                       # Class of executed instruction
system.switch_cpus.op_class::FloatAdd               0                       # Class of executed instruction
system.switch_cpus.op_class::FloatCmp               0                       # Class of executed instruction
system.switch_cpus.op_class::FloatCvt               0                       # Class of executed instruction
system.switch_cpus.op_class::FloatMult              0                       # Class of executed instruction
system.switch_cpus.op_class::FloatMultAcc            0                       # Class of executed instruction
system.switch_cpus.op_class::FloatDiv               0                       # Class of executed instruction
system.switch_cpus.op_class::FloatMisc              0                       # Class of executed instruction
system.switch_cpus.op_class::FloatSqrt              0                       # Class of executed instruction
system.switch_cpus.op_class::SimdAdd                0                       # Class of executed instruction
system.switch_cpus.op_class::SimdAddAcc             0                       # Class of executed instruction
system.switch_cpus.op_class::SimdAlu                0                       # Class of executed instruction
system.switch_cpus.op_class::SimdCmp                0                       # Class of executed instruction
system.switch_cpus.op_class::SimdCvt                0                       # Class of executed instruction
system.switch_cpus.op_class::SimdMisc               0                       # Class of executed instruction
system.switch_cpus.op_class::SimdMult               0                       # Class of executed instruction
system.switch_cpus.op_class::SimdMultAcc            0                       # Class of executed instruction
system.switch_cpus.op_class::SimdShift              0                       # Class of executed instruction
system.switch_cpus.op_class::SimdShiftAcc            0                       # Class of executed instruction
system.switch_cpus.op_class::SimdDiv                0                       # Class of executed instruction
system.switch_cpus.op_class::SimdSqrt               0                       # Class of executed instruction
system.switch_cpus.op_class::SimdFloatAdd            0                       # Class of executed instruction
system.switch_cpus.op_class::SimdFloatAlu            0                       # Class of executed instruction
system.switch_cpus.op_class::SimdFloatCmp            0                       # Class of executed instruction
system.switch_cpus.op_class::SimdFloatCvt            0                       # Class of executed instruction
system.switch_cpus.op_class::SimdFloatDiv            0                       # Class of executed instruction
system.switch_cpus.op_class::SimdFloatMisc            0                       # Class of executed instruction
system.switch_cpus.op_class::SimdFloatMult            0                       # Class of executed instruction
system.switch_cpus.op_class::SimdFloatMultAcc            0                       # Class of executed instruction
system.switch_cpus.op_class::SimdFloatSqrt            0                       # Class of executed instruction
system.switch_cpus.op_class::SimdReduceAdd            0                       # Class of executed instruction
system.switch_cpus.op_class::SimdReduceAlu            0                       # Class of executed instruction
system.switch_cpus.op_class::SimdReduceCmp            0                       # Class of executed instruction
system.switch_cpus.op_class::SimdFloatReduceAdd            0                       # Class of executed instruction
system.switch_cpus.op_class::SimdFloatReduceCmp            0                       # Class of executed instruction
system.switch_cpus.op_class::SimdAes                0                       # Class of executed instruction
system.switch_cpus.op_class::SimdAesMix             0                       # Class of executed instruction
system.switch_cpus.op_class::SimdSha1Hash            0                       # Class of executed instruction
system.switch_cpus.op_class::SimdSha1Hash2            0                       # Class of executed instruction
system.switch_cpus.op_class::SimdSha256Hash            0                       # Class of executed instruction
system.switch_cpus.op_class::SimdSha256Hash2            0                       # Class of executed instruction
system.switch_cpus.op_class::SimdShaSigma2            0                       # Class of executed instruction
system.switch_cpus.op_class::SimdShaSigma3            0                       # Class of executed instruction
system.switch_cpus.op_class::SimdPredAlu            0                       # Class of executed instruction
system.switch_cpus.op_class::MemRead                0                       # Class of executed instruction
system.switch_cpus.op_class::MemWrite               0                       # Class of executed instruction
system.switch_cpus.op_class::FloatMemRead            0                       # Class of executed instruction
system.switch_cpus.op_class::FloatMemWrite            0                       # Class of executed instruction
system.switch_cpus.op_class::IprAccess              0                       # Class of executed instruction
system.switch_cpus.op_class::InstPrefetch            0                       # Class of executed instruction
system.switch_cpus.op_class::total                  0                       # Class of executed instruction
system.switch_cpus_1.branchPred.BTBCorrect            0                       # Number of correct BTB predictions (this stat may not work properly.
system.switch_cpus_1.branchPred.BTBHitPct          nan                       # BTB Hit Percentage
system.switch_cpus_1.branchPred.BTBHits             0                       # Number of BTB hits
system.switch_cpus_1.branchPred.BTBLookups            0                       # Number of BTB lookups
system.switch_cpus_1.branchPred.RASInCorrect            1                       # Number of incorrect RAS predictions.
system.switch_cpus_1.branchPred.condIncorrect       114075                       # Number of conditional branches incorrect
system.switch_cpus_1.branchPred.condPredicted     20828607                       # Number of conditional branches predicted
system.switch_cpus_1.branchPred.indirectHits     13657949                       # Number of indirect target hits.
system.switch_cpus_1.branchPred.indirectLookups     13700590                       # Number of indirect predictor lookups.
system.switch_cpus_1.branchPred.indirectMisses        42641                       # Number of indirect misses.
system.switch_cpus_1.branchPred.lookups      21103819                       # Number of BP lookups
system.switch_cpus_1.branchPred.usedRAS        141583                       # Number of times the RAS was used to get a target.
system.switch_cpus_1.branchPredindirectMispredicted         7561                       # Number of mispredicted indirect branches.
system.switch_cpus_1.cc_regfile_reads       671143169                       # number of cc regfile reads
system.switch_cpus_1.cc_regfile_writes      333892317                       # number of cc regfile writes
system.switch_cpus_1.commit.amos                    0                       # Number of atomic instructions committed
system.switch_cpus_1.commit.branchMispredicts       114082                       # The number of times a branch was mispredicted
system.switch_cpus_1.commit.branches         20165167                       # Number of branches committed
system.switch_cpus_1.commit.bw_lim_events     51560853                       # number cycles where commit BW limit reached
system.switch_cpus_1.commit.commitSquashedInsts      5704157                       # The number of squashed insts skipped by commit
system.switch_cpus_1.commit.committedInsts    417555219                       # Number of instructions committed
system.switch_cpus_1.commit.committedOps    632278168                       # Number of ops (including micro ops) committed
system.switch_cpus_1.commit.committed_per_cycle::samples    273731299                       # Number of insts commited each cycle
system.switch_cpus_1.commit.committed_per_cycle::mean     2.309850                       # Number of insts commited each cycle
system.switch_cpus_1.commit.committed_per_cycle::stdev     3.107564                       # Number of insts commited each cycle
system.switch_cpus_1.commit.committed_per_cycle::underflows            0      0.00%      0.00% # Number of insts commited each cycle
system.switch_cpus_1.commit.committed_per_cycle::0    125329437     45.79%     45.79% # Number of insts commited each cycle
system.switch_cpus_1.commit.committed_per_cycle::1     55306845     20.20%     65.99% # Number of insts commited each cycle
system.switch_cpus_1.commit.committed_per_cycle::2      3140632      1.15%     67.14% # Number of insts commited each cycle
system.switch_cpus_1.commit.committed_per_cycle::3     19369630      7.08%     74.21% # Number of insts commited each cycle
system.switch_cpus_1.commit.committed_per_cycle::4      9739482      3.56%     77.77% # Number of insts commited each cycle
system.switch_cpus_1.commit.committed_per_cycle::5       563778      0.21%     77.98% # Number of insts commited each cycle
system.switch_cpus_1.commit.committed_per_cycle::6      2726967      1.00%     78.97% # Number of insts commited each cycle
system.switch_cpus_1.commit.committed_per_cycle::7      5993675      2.19%     81.16% # Number of insts commited each cycle
system.switch_cpus_1.commit.committed_per_cycle::8     51560853     18.84%    100.00% # Number of insts commited each cycle
system.switch_cpus_1.commit.committed_per_cycle::overflows            0      0.00%    100.00% # Number of insts commited each cycle
system.switch_cpus_1.commit.committed_per_cycle::min_value            0                       # Number of insts commited each cycle
system.switch_cpus_1.commit.committed_per_cycle::max_value            8                       # Number of insts commited each cycle
system.switch_cpus_1.commit.committed_per_cycle::total    273731299                       # Number of insts commited each cycle
system.switch_cpus_1.commit.fp_insts          1671406                       # Number of committed floating point instructions.
system.switch_cpus_1.commit.function_calls       108034                       # Number of function calls committed.
system.switch_cpus_1.commit.int_insts       631002923                       # Number of committed integer instructions.
system.switch_cpus_1.commit.loads           179222981                       # Number of loads committed
system.switch_cpus_1.commit.membars                 0                       # Number of memory barriers committed
system.switch_cpus_1.commit.op_class_0::No_OpClass        85268      0.01%      0.01% # Class of committed instruction
system.switch_cpus_1.commit.op_class_0::IntAlu    387686036     61.32%     61.33% # Class of committed instruction
system.switch_cpus_1.commit.op_class_0::IntMult       171952      0.03%     61.36% # Class of committed instruction
system.switch_cpus_1.commit.op_class_0::IntDiv            0      0.00%     61.36% # Class of committed instruction
system.switch_cpus_1.commit.op_class_0::FloatAdd        65482      0.01%     61.37% # Class of committed instruction
system.switch_cpus_1.commit.op_class_0::FloatCmp            0      0.00%     61.37% # Class of committed instruction
system.switch_cpus_1.commit.op_class_0::FloatCvt            0      0.00%     61.37% # Class of committed instruction
system.switch_cpus_1.commit.op_class_0::FloatMult            0      0.00%     61.37% # Class of committed instruction
system.switch_cpus_1.commit.op_class_0::FloatMultAcc            0      0.00%     61.37% # Class of committed instruction
system.switch_cpus_1.commit.op_class_0::FloatDiv            0      0.00%     61.37% # Class of committed instruction
system.switch_cpus_1.commit.op_class_0::FloatMisc            0      0.00%     61.37% # Class of committed instruction
system.switch_cpus_1.commit.op_class_0::FloatSqrt            0      0.00%     61.37% # Class of committed instruction
system.switch_cpus_1.commit.op_class_0::SimdAdd            0      0.00%     61.37% # Class of committed instruction
system.switch_cpus_1.commit.op_class_0::SimdAddAcc            0      0.00%     61.37% # Class of committed instruction
system.switch_cpus_1.commit.op_class_0::SimdAlu       150574      0.02%     61.39% # Class of committed instruction
system.switch_cpus_1.commit.op_class_0::SimdCmp            0      0.00%     61.39% # Class of committed instruction
system.switch_cpus_1.commit.op_class_0::SimdCvt       129632      0.02%     61.41% # Class of committed instruction
system.switch_cpus_1.commit.op_class_0::SimdMisc       258765      0.04%     61.45% # Class of committed instruction
system.switch_cpus_1.commit.op_class_0::SimdMult            0      0.00%     61.45% # Class of committed instruction
system.switch_cpus_1.commit.op_class_0::SimdMultAcc            0      0.00%     61.45% # Class of committed instruction
system.switch_cpus_1.commit.op_class_0::SimdShift            0      0.00%     61.45% # Class of committed instruction
system.switch_cpus_1.commit.op_class_0::SimdShiftAcc            0      0.00%     61.45% # Class of committed instruction
system.switch_cpus_1.commit.op_class_0::SimdDiv            0      0.00%     61.45% # Class of committed instruction
system.switch_cpus_1.commit.op_class_0::SimdSqrt            0      0.00%     61.45% # Class of committed instruction
system.switch_cpus_1.commit.op_class_0::SimdFloatAdd       220160      0.03%     61.49% # Class of committed instruction
system.switch_cpus_1.commit.op_class_0::SimdFloatAlu            0      0.00%     61.49% # Class of committed instruction
system.switch_cpus_1.commit.op_class_0::SimdFloatCmp           60      0.00%     61.49% # Class of committed instruction
system.switch_cpus_1.commit.op_class_0::SimdFloatCvt       328675      0.05%     61.54% # Class of committed instruction
system.switch_cpus_1.commit.op_class_0::SimdFloatDiv        43048      0.01%     61.55% # Class of committed instruction
system.switch_cpus_1.commit.op_class_0::SimdFloatMisc            0      0.00%     61.55% # Class of committed instruction
system.switch_cpus_1.commit.op_class_0::SimdFloatMult        22196      0.00%     61.55% # Class of committed instruction
system.switch_cpus_1.commit.op_class_0::SimdFloatMultAcc            0      0.00%     61.55% # Class of committed instruction
system.switch_cpus_1.commit.op_class_0::SimdFloatSqrt            0      0.00%     61.55% # Class of committed instruction
system.switch_cpus_1.commit.op_class_0::SimdReduceAdd            0      0.00%     61.55% # Class of committed instruction
system.switch_cpus_1.commit.op_class_0::SimdReduceAlu            0      0.00%     61.55% # Class of committed instruction
system.switch_cpus_1.commit.op_class_0::SimdReduceCmp            0      0.00%     61.55% # Class of committed instruction
system.switch_cpus_1.commit.op_class_0::SimdFloatReduceAdd            0      0.00%     61.55% # Class of committed instruction
system.switch_cpus_1.commit.op_class_0::SimdFloatReduceCmp            0      0.00%     61.55% # Class of committed instruction
system.switch_cpus_1.commit.op_class_0::SimdAes            0      0.00%     61.55% # Class of committed instruction
system.switch_cpus_1.commit.op_class_0::SimdAesMix            0      0.00%     61.55% # Class of committed instruction
system.switch_cpus_1.commit.op_class_0::SimdSha1Hash            0      0.00%     61.55% # Class of committed instruction
system.switch_cpus_1.commit.op_class_0::SimdSha1Hash2            0      0.00%     61.55% # Class of committed instruction
system.switch_cpus_1.commit.op_class_0::SimdSha256Hash            0      0.00%     61.55% # Class of committed instruction
system.switch_cpus_1.commit.op_class_0::SimdSha256Hash2            0      0.00%     61.55% # Class of committed instruction
system.switch_cpus_1.commit.op_class_0::SimdShaSigma2            0      0.00%     61.55% # Class of committed instruction
system.switch_cpus_1.commit.op_class_0::SimdShaSigma3            0      0.00%     61.55% # Class of committed instruction
system.switch_cpus_1.commit.op_class_0::SimdPredAlu            0      0.00%     61.55% # Class of committed instruction
system.switch_cpus_1.commit.op_class_0::MemRead    178872460     28.29%     89.84% # Class of committed instruction
system.switch_cpus_1.commit.op_class_0::MemWrite     63892274     10.11%     99.94% # Class of committed instruction
system.switch_cpus_1.commit.op_class_0::FloatMemRead       350521      0.06%    100.00% # Class of committed instruction
system.switch_cpus_1.commit.op_class_0::FloatMemWrite         1065      0.00%    100.00% # Class of committed instruction
system.switch_cpus_1.commit.op_class_0::IprAccess            0      0.00%    100.00% # Class of committed instruction
system.switch_cpus_1.commit.op_class_0::InstPrefetch            0      0.00%    100.00% # Class of committed instruction
system.switch_cpus_1.commit.op_class_0::total    632278168                       # Class of committed instruction
system.switch_cpus_1.commit.refs            243116320                       # Number of memory references committed
system.switch_cpus_1.commit.swp_count               0                       # Number of s/w prefetches committed
system.switch_cpus_1.commit.vec_insts               0                       # Number of committed Vector instructions.
system.switch_cpus_1.committedInsts         417555219                       # Number of Instructions Simulated
system.switch_cpus_1.committedOps           632278168                       # Number of Ops (including micro ops) Simulated
system.switch_cpus_1.cpi                     0.657560                       # CPI: Cycles Per Instruction
system.switch_cpus_1.cpi_total               0.657560                       # CPI: Total CPI of All Threads
system.switch_cpus_1.decode.BlockedCycles    182650901                       # Number of cycles decode is blocked
system.switch_cpus_1.decode.DecodedInsts    639956519                       # Number of instructions handled by decode
system.switch_cpus_1.decode.IdleCycles       11576032                       # Number of cycles decode is idle
system.switch_cpus_1.decode.RunCycles        56362145                       # Number of cycles decode is running
system.switch_cpus_1.decode.SquashCycles       119576                       # Number of cycles decode is squashing
system.switch_cpus_1.decode.UnblockCycles     23858229                       # Number of cycles decode is unblocking
system.switch_cpus_1.dtb.rdAccesses         180067401                       # TLB accesses on read requests
system.switch_cpus_1.dtb.rdMisses                2031                       # TLB misses on read requests
system.switch_cpus_1.dtb.wrAccesses          63994460                       # TLB accesses on write requests
system.switch_cpus_1.dtb.wrMisses               19292                       # TLB misses on write requests
system.switch_cpus_1.fetch.Branches          21103819                       # Number of branches that fetch encountered
system.switch_cpus_1.fetch.CacheLines        32693763                       # Number of cache lines fetched
system.switch_cpus_1.fetch.Cycles           274390771                       # Number of cycles fetch has run and was not squashing or blocked
system.switch_cpus_1.fetch.IcacheSquashes           59                       # Number of outstanding Icache misses that were squashed
system.switch_cpus_1.fetch.IcacheWaitRetryStallCycles           29                       # Number of stall cycles due to full MSHR
system.switch_cpus_1.fetch.Insts            423873622                       # Number of instructions fetch has processed
system.switch_cpus_1.fetch.MiscStallCycles            9                       # Number of cycles fetch has spent waiting on interrupts, or bad addresses, or out of MSHRs
system.switch_cpus_1.fetch.PendingTrapStallCycles           48                       # Number of stall cycles due to pending traps
system.switch_cpus_1.fetch.SquashCycles        239152                       # Number of cycles fetch has spent squashing
system.switch_cpus_1.fetch.branchRate        0.076862                       # Number of branch fetches per cycle
system.switch_cpus_1.fetch.icacheStallCycles        56463                       # Number of cycles fetch is stalled on an Icache miss
system.switch_cpus_1.fetch.predictedBranches     13799532                       # Number of branches that fetch has predicted taken
system.switch_cpus_1.fetch.rate              1.543785                       # Number of inst fetches per cycle
system.switch_cpus_1.fetch.rateDist::samples    274566896                       # Number of instructions fetched each cycle (Total)
system.switch_cpus_1.fetch.rateDist::mean     2.342665                       # Number of instructions fetched each cycle (Total)
system.switch_cpus_1.fetch.rateDist::stdev     3.344664                       # Number of instructions fetched each cycle (Total)
system.switch_cpus_1.fetch.rateDist::underflows            0      0.00%      0.00% # Number of instructions fetched each cycle (Total)
system.switch_cpus_1.fetch.rateDist::0      170057040     61.94%     61.94% # Number of instructions fetched each cycle (Total)
system.switch_cpus_1.fetch.rateDist::1        8164041      2.97%     64.91% # Number of instructions fetched each cycle (Total)
system.switch_cpus_1.fetch.rateDist::2        2529903      0.92%     65.83% # Number of instructions fetched each cycle (Total)
system.switch_cpus_1.fetch.rateDist::3        8571918      3.12%     68.95% # Number of instructions fetched each cycle (Total)
system.switch_cpus_1.fetch.rateDist::4       14508181      5.28%     74.24% # Number of instructions fetched each cycle (Total)
system.switch_cpus_1.fetch.rateDist::5        2391589      0.87%     75.11% # Number of instructions fetched each cycle (Total)
system.switch_cpus_1.fetch.rateDist::6        1983831      0.72%     75.83% # Number of instructions fetched each cycle (Total)
system.switch_cpus_1.fetch.rateDist::7        8498085      3.10%     78.93% # Number of instructions fetched each cycle (Total)
system.switch_cpus_1.fetch.rateDist::8       57862308     21.07%    100.00% # Number of instructions fetched each cycle (Total)
system.switch_cpus_1.fetch.rateDist::overflows            0      0.00%    100.00% # Number of instructions fetched each cycle (Total)
system.switch_cpus_1.fetch.rateDist::min_value            0                       # Number of instructions fetched each cycle (Total)
system.switch_cpus_1.fetch.rateDist::max_value            8                       # Number of instructions fetched each cycle (Total)
system.switch_cpus_1.fetch.rateDist::total    274566896                       # Number of instructions fetched each cycle (Total)
system.switch_cpus_1.fp_regfile_reads         3486323                       # number of floating regfile reads
system.switch_cpus_1.fp_regfile_writes        1771808                       # number of floating regfile writes
system.switch_cpus_1.idleCycles                   812                       # Total number of cycles that the CPU has spent unscheduled due to idling
system.switch_cpus_1.iew.branchMispredicts       142610                       # Number of branch mispredicts detected at execute
system.switch_cpus_1.iew.exec_branches       20321204                       # Number of branches executed
system.switch_cpus_1.iew.exec_nop                   0                       # number of nop insts executed
system.switch_cpus_1.iew.exec_rate           2.315715                       # Inst execution rate
system.switch_cpus_1.iew.exec_refs          244121921                       # number of memory reference insts executed
system.switch_cpus_1.iew.exec_stores         63994406                       # Number of stores executed
system.switch_cpus_1.iew.exec_swp                   0                       # number of swp insts executed
system.switch_cpus_1.iew.iewBlockCycles        839521                       # Number of cycles IEW is blocking
system.switch_cpus_1.iew.iewDispLoadInsts    180275574                       # Number of dispatched load instructions
system.switch_cpus_1.iew.iewDispNonSpecInsts            0                       # Number of dispatched non-speculative instructions
system.switch_cpus_1.iew.iewDispSquashedInsts         3471                       # Number of squashed instructions skipped by dispatch
system.switch_cpus_1.iew.iewDispStoreInsts     64146396                       # Number of dispatched store instructions
system.switch_cpus_1.iew.iewDispatchedInsts    637982374                       # Number of instructions dispatched to IQ
system.switch_cpus_1.iew.iewExecLoadInsts    180127515                       # Number of load instructions executed
system.switch_cpus_1.iew.iewExecSquashedInsts       254750                       # Number of squashed instructions skipped in execute
system.switch_cpus_1.iew.iewExecutedInsts    635820628                       # Number of executed instructions
system.switch_cpus_1.iew.iewIQFullEvents        16711                       # Number of times the IQ has become full, causing a stall
system.switch_cpus_1.iew.iewIdleCycles              0                       # Number of cycles IEW is idle
system.switch_cpus_1.iew.iewLSQFullEvents     11237979                       # Number of times the LSQ has become full, causing a stall
system.switch_cpus_1.iew.iewSquashCycles       119576                       # Number of cycles IEW is squashing
system.switch_cpus_1.iew.iewUnblockCycles     11259355                       # Number of cycles IEW is unblocking
system.switch_cpus_1.iew.lsq.thread0.blockedLoads            0                       # Number of blocked loads due to partial load-store forwarding
system.switch_cpus_1.iew.lsq.thread0.cacheBlocked        18584                       # Number of times an access to memory failed due to the cache being blocked
system.switch_cpus_1.iew.lsq.thread0.forwLoads     11576549                       # Number of loads that had data forwarded from stores
system.switch_cpus_1.iew.lsq.thread0.ignoredResponses          394                       # Number of memory responses ignored because the instruction is squashed
system.switch_cpus_1.iew.lsq.thread0.invAddrLoads            0                       # Number of loads ignored due to an invalid address
system.switch_cpus_1.iew.lsq.thread0.invAddrSwpfs            0                       # Number of software prefetches ignored due to an invalid address
system.switch_cpus_1.iew.lsq.thread0.memOrderViolation         5892                       # Number of memory ordering violations
system.switch_cpus_1.iew.lsq.thread0.rescheduledLoads            0                       # Number of loads that were rescheduled
system.switch_cpus_1.iew.lsq.thread0.squashedLoads      1052564                       # Number of loads squashed
system.switch_cpus_1.iew.lsq.thread0.squashedStores       253057                       # Number of stores squashed
system.switch_cpus_1.iew.memOrderViolationEvents         5892                       # Number of memory order violations
system.switch_cpus_1.iew.predictedNotTakenIncorrect        94099                       # Number of branches that were predicted not taken incorrectly
system.switch_cpus_1.iew.predictedTakenIncorrect        48511                       # Number of branches that were predicted taken incorrectly
system.switch_cpus_1.iew.wb_consumers      1069372050                       # num instructions consuming a value
system.switch_cpus_1.iew.wb_count           635575251                       # cumulative count of insts written-back
system.switch_cpus_1.iew.wb_fanout           0.500105                       # average fanout of values written-back
system.switch_cpus_1.iew.wb_producers       534798536                       # num instructions producing a value
system.switch_cpus_1.iew.wb_rate             2.314822                       # insts written-back per cycle
system.switch_cpus_1.iew.wb_sent            635662248                       # cumulative count of insts sent to commit
system.switch_cpus_1.int_regfile_reads     1291275838                       # number of integer regfile reads
system.switch_cpus_1.int_regfile_writes     549418088                       # number of integer regfile writes
system.switch_cpus_1.ipc                     1.520773                       # IPC: Instructions Per Cycle
system.switch_cpus_1.ipc_total               1.520773                       # IPC: Total IPC of All Threads
system.switch_cpus_1.iq.FU_type_0::No_OpClass        98677      0.02%      0.02% # Type of FU issued
system.switch_cpus_1.iq.FU_type_0::IntAlu    390035217     61.32%     61.33% # Type of FU issued
system.switch_cpus_1.iq.FU_type_0::IntMult       175465      0.03%     61.36% # Type of FU issued
system.switch_cpus_1.iq.FU_type_0::IntDiv            0      0.00%     61.36% # Type of FU issued
system.switch_cpus_1.iq.FU_type_0::FloatAdd        84601      0.01%     61.38% # Type of FU issued
system.switch_cpus_1.iq.FU_type_0::FloatCmp            0      0.00%     61.38% # Type of FU issued
system.switch_cpus_1.iq.FU_type_0::FloatCvt          262      0.00%     61.38% # Type of FU issued
system.switch_cpus_1.iq.FU_type_0::FloatMult            0      0.00%     61.38% # Type of FU issued
system.switch_cpus_1.iq.FU_type_0::FloatMultAcc            0      0.00%     61.38% # Type of FU issued
system.switch_cpus_1.iq.FU_type_0::FloatDiv            0      0.00%     61.38% # Type of FU issued
system.switch_cpus_1.iq.FU_type_0::FloatMisc            0      0.00%     61.38% # Type of FU issued
system.switch_cpus_1.iq.FU_type_0::FloatSqrt            0      0.00%     61.38% # Type of FU issued
system.switch_cpus_1.iq.FU_type_0::SimdAdd            0      0.00%     61.38% # Type of FU issued
system.switch_cpus_1.iq.FU_type_0::SimdAddAcc            0      0.00%     61.38% # Type of FU issued
system.switch_cpus_1.iq.FU_type_0::SimdAlu       180925      0.03%     61.40% # Type of FU issued
system.switch_cpus_1.iq.FU_type_0::SimdCmp            0      0.00%     61.40% # Type of FU issued
system.switch_cpus_1.iq.FU_type_0::SimdCvt       136840      0.02%     61.43% # Type of FU issued
system.switch_cpus_1.iq.FU_type_0::SimdMisc       274385      0.04%     61.47% # Type of FU issued
system.switch_cpus_1.iq.FU_type_0::SimdMult            0      0.00%     61.47% # Type of FU issued
system.switch_cpus_1.iq.FU_type_0::SimdMultAcc            0      0.00%     61.47% # Type of FU issued
system.switch_cpus_1.iq.FU_type_0::SimdShift            0      0.00%     61.47% # Type of FU issued
system.switch_cpus_1.iq.FU_type_0::SimdShiftAcc            0      0.00%     61.47% # Type of FU issued
system.switch_cpus_1.iq.FU_type_0::SimdDiv            0      0.00%     61.47% # Type of FU issued
system.switch_cpus_1.iq.FU_type_0::SimdSqrt            0      0.00%     61.47% # Type of FU issued
system.switch_cpus_1.iq.FU_type_0::SimdFloatAdd       346540      0.05%     61.52% # Type of FU issued
system.switch_cpus_1.iq.FU_type_0::SimdFloatAlu            0      0.00%     61.52% # Type of FU issued
system.switch_cpus_1.iq.FU_type_0::SimdFloatCmp          112      0.00%     61.52% # Type of FU issued
system.switch_cpus_1.iq.FU_type_0::SimdFloatCvt       396379      0.06%     61.59% # Type of FU issued
system.switch_cpus_1.iq.FU_type_0::SimdFloatDiv        56577      0.01%     61.59% # Type of FU issued
system.switch_cpus_1.iq.FU_type_0::SimdFloatMisc            0      0.00%     61.59% # Type of FU issued
system.switch_cpus_1.iq.FU_type_0::SimdFloatMult        26383      0.00%     61.60% # Type of FU issued
system.switch_cpus_1.iq.FU_type_0::SimdFloatMultAcc            0      0.00%     61.60% # Type of FU issued
system.switch_cpus_1.iq.FU_type_0::SimdFloatSqrt            0      0.00%     61.60% # Type of FU issued
system.switch_cpus_1.iq.FU_type_0::SimdReduceAdd            0      0.00%     61.60% # Type of FU issued
system.switch_cpus_1.iq.FU_type_0::SimdReduceAlu            0      0.00%     61.60% # Type of FU issued
system.switch_cpus_1.iq.FU_type_0::SimdReduceCmp            0      0.00%     61.60% # Type of FU issued
system.switch_cpus_1.iq.FU_type_0::SimdFloatReduceAdd            0      0.00%     61.60% # Type of FU issued
system.switch_cpus_1.iq.FU_type_0::SimdFloatReduceCmp            0      0.00%     61.60% # Type of FU issued
system.switch_cpus_1.iq.FU_type_0::SimdAes            0      0.00%     61.60% # Type of FU issued
system.switch_cpus_1.iq.FU_type_0::SimdAesMix            0      0.00%     61.60% # Type of FU issued
system.switch_cpus_1.iq.FU_type_0::SimdSha1Hash            0      0.00%     61.60% # Type of FU issued
system.switch_cpus_1.iq.FU_type_0::SimdSha1Hash2            0      0.00%     61.60% # Type of FU issued
system.switch_cpus_1.iq.FU_type_0::SimdSha256Hash            0      0.00%     61.60% # Type of FU issued
system.switch_cpus_1.iq.FU_type_0::SimdSha256Hash2            0      0.00%     61.60% # Type of FU issued
system.switch_cpus_1.iq.FU_type_0::SimdShaSigma2            0      0.00%     61.60% # Type of FU issued
system.switch_cpus_1.iq.FU_type_0::SimdShaSigma3            0      0.00%     61.60% # Type of FU issued
system.switch_cpus_1.iq.FU_type_0::SimdPredAlu            0      0.00%     61.60% # Type of FU issued
system.switch_cpus_1.iq.FU_type_0::MemRead    179727378     28.26%     89.85% # Type of FU issued
system.switch_cpus_1.iq.FU_type_0::MemWrite     64006695     10.06%     99.92% # Type of FU issued
system.switch_cpus_1.iq.FU_type_0::FloatMemRead       527197      0.08%    100.00% # Type of FU issued
system.switch_cpus_1.iq.FU_type_0::FloatMemWrite         1752      0.00%    100.00% # Type of FU issued
system.switch_cpus_1.iq.FU_type_0::IprAccess            0      0.00%    100.00% # Type of FU issued
system.switch_cpus_1.iq.FU_type_0::InstPrefetch            0      0.00%    100.00% # Type of FU issued
system.switch_cpus_1.iq.FU_type_0::total    636075385                       # Type of FU issued
system.switch_cpus_1.iq.fp_alu_accesses       2162011                       # Number of floating point alu accesses
system.switch_cpus_1.iq.fp_inst_queue_reads      4308880                       # Number of floating instruction queue reads
system.switch_cpus_1.iq.fp_inst_queue_wakeup_accesses      2110415                       # Number of floating instruction queue wakeup accesses
system.switch_cpus_1.iq.fp_inst_queue_writes      3089136                       # Number of floating instruction queue writes
system.switch_cpus_1.iq.fu_busy_cnt           3645097                       # FU busy when requested
system.switch_cpus_1.iq.fu_busy_rate         0.005731                       # FU busy rate (busy events/executed inst)
system.switch_cpus_1.iq.fu_full::No_OpClass            0      0.00%      0.00% # attempts to use FU when none available
system.switch_cpus_1.iq.fu_full::IntAlu        288871      7.92%      7.92% # attempts to use FU when none available
system.switch_cpus_1.iq.fu_full::IntMult            0      0.00%      7.92% # attempts to use FU when none available
system.switch_cpus_1.iq.fu_full::IntDiv             0      0.00%      7.92% # attempts to use FU when none available
system.switch_cpus_1.iq.fu_full::FloatAdd            0      0.00%      7.92% # attempts to use FU when none available
system.switch_cpus_1.iq.fu_full::FloatCmp            0      0.00%      7.92% # attempts to use FU when none available
system.switch_cpus_1.iq.fu_full::FloatCvt            2      0.00%      7.92% # attempts to use FU when none available
system.switch_cpus_1.iq.fu_full::FloatMult            0      0.00%      7.92% # attempts to use FU when none available
system.switch_cpus_1.iq.fu_full::FloatMultAcc            0      0.00%      7.92% # attempts to use FU when none available
system.switch_cpus_1.iq.fu_full::FloatDiv            0      0.00%      7.92% # attempts to use FU when none available
system.switch_cpus_1.iq.fu_full::FloatMisc            0      0.00%      7.92% # attempts to use FU when none available
system.switch_cpus_1.iq.fu_full::FloatSqrt            0      0.00%      7.92% # attempts to use FU when none available
system.switch_cpus_1.iq.fu_full::SimdAdd            0      0.00%      7.92% # attempts to use FU when none available
system.switch_cpus_1.iq.fu_full::SimdAddAcc            0      0.00%      7.92% # attempts to use FU when none available
system.switch_cpus_1.iq.fu_full::SimdAlu          358      0.01%      7.93% # attempts to use FU when none available
system.switch_cpus_1.iq.fu_full::SimdCmp            0      0.00%      7.93% # attempts to use FU when none available
system.switch_cpus_1.iq.fu_full::SimdCvt         3376      0.09%      8.03% # attempts to use FU when none available
system.switch_cpus_1.iq.fu_full::SimdMisc            1      0.00%      8.03% # attempts to use FU when none available
system.switch_cpus_1.iq.fu_full::SimdMult            0      0.00%      8.03% # attempts to use FU when none available
system.switch_cpus_1.iq.fu_full::SimdMultAcc            0      0.00%      8.03% # attempts to use FU when none available
system.switch_cpus_1.iq.fu_full::SimdShift            0      0.00%      8.03% # attempts to use FU when none available
system.switch_cpus_1.iq.fu_full::SimdShiftAcc            0      0.00%      8.03% # attempts to use FU when none available
system.switch_cpus_1.iq.fu_full::SimdDiv            0      0.00%      8.03% # attempts to use FU when none available
system.switch_cpus_1.iq.fu_full::SimdSqrt            0      0.00%      8.03% # attempts to use FU when none available
system.switch_cpus_1.iq.fu_full::SimdFloatAdd          530      0.01%      8.04% # attempts to use FU when none available
system.switch_cpus_1.iq.fu_full::SimdFloatAlu            0      0.00%      8.04% # attempts to use FU when none available
system.switch_cpus_1.iq.fu_full::SimdFloatCmp            0      0.00%      8.04% # attempts to use FU when none available
system.switch_cpus_1.iq.fu_full::SimdFloatCvt        10841      0.30%      8.34% # attempts to use FU when none available
system.switch_cpus_1.iq.fu_full::SimdFloatDiv            0      0.00%      8.34% # attempts to use FU when none available
system.switch_cpus_1.iq.fu_full::SimdFloatMisc            0      0.00%      8.34% # attempts to use FU when none available
system.switch_cpus_1.iq.fu_full::SimdFloatMult            0      0.00%      8.34% # attempts to use FU when none available
system.switch_cpus_1.iq.fu_full::SimdFloatMultAcc            0      0.00%      8.34% # attempts to use FU when none available
system.switch_cpus_1.iq.fu_full::SimdFloatSqrt            0      0.00%      8.34% # attempts to use FU when none available
system.switch_cpus_1.iq.fu_full::SimdReduceAdd            0      0.00%      8.34% # attempts to use FU when none available
system.switch_cpus_1.iq.fu_full::SimdReduceAlu            0      0.00%      8.34% # attempts to use FU when none available
system.switch_cpus_1.iq.fu_full::SimdReduceCmp            0      0.00%      8.34% # attempts to use FU when none available
system.switch_cpus_1.iq.fu_full::SimdFloatReduceAdd            0      0.00%      8.34% # attempts to use FU when none available
system.switch_cpus_1.iq.fu_full::SimdFloatReduceCmp            0      0.00%      8.34% # attempts to use FU when none available
system.switch_cpus_1.iq.fu_full::SimdAes            0      0.00%      8.34% # attempts to use FU when none available
system.switch_cpus_1.iq.fu_full::SimdAesMix            0      0.00%      8.34% # attempts to use FU when none available
system.switch_cpus_1.iq.fu_full::SimdSha1Hash            0      0.00%      8.34% # attempts to use FU when none available
system.switch_cpus_1.iq.fu_full::SimdSha1Hash2            0      0.00%      8.34% # attempts to use FU when none available
system.switch_cpus_1.iq.fu_full::SimdSha256Hash            0      0.00%      8.34% # attempts to use FU when none available
system.switch_cpus_1.iq.fu_full::SimdSha256Hash2            0      0.00%      8.34% # attempts to use FU when none available
system.switch_cpus_1.iq.fu_full::SimdShaSigma2            0      0.00%      8.34% # attempts to use FU when none available
system.switch_cpus_1.iq.fu_full::SimdShaSigma3            0      0.00%      8.34% # attempts to use FU when none available
system.switch_cpus_1.iq.fu_full::SimdPredAlu            0      0.00%      8.34% # attempts to use FU when none available
system.switch_cpus_1.iq.fu_full::MemRead      3335692     91.51%     99.85% # attempts to use FU when none available
system.switch_cpus_1.iq.fu_full::MemWrite         4658      0.13%     99.98% # attempts to use FU when none available
system.switch_cpus_1.iq.fu_full::FloatMemRead          766      0.02%    100.00% # attempts to use FU when none available
system.switch_cpus_1.iq.fu_full::FloatMemWrite            2      0.00%    100.00% # attempts to use FU when none available
system.switch_cpus_1.iq.fu_full::IprAccess            0      0.00%    100.00% # attempts to use FU when none available
system.switch_cpus_1.iq.fu_full::InstPrefetch            0      0.00%    100.00% # attempts to use FU when none available
system.switch_cpus_1.iq.int_alu_accesses    637459794                       # Number of integer alu accesses
system.switch_cpus_1.iq.int_inst_queue_reads   1546170950                       # Number of integer instruction queue reads
system.switch_cpus_1.iq.int_inst_queue_wakeup_accesses    633464836                       # Number of integer instruction queue wakeup accesses
system.switch_cpus_1.iq.int_inst_queue_writes    640603081                       # Number of integer instruction queue writes
system.switch_cpus_1.iq.iqInstsAdded        637982374                       # Number of instructions added to the IQ (excludes non-spec)
system.switch_cpus_1.iq.iqInstsIssued       636075385                       # Number of instructions issued
system.switch_cpus_1.iq.iqSquashedInstsExamined      5704035                       # Number of squashed instructions iterated over during squash; mainly for profiling
system.switch_cpus_1.iq.iqSquashedInstsIssued       117074                       # Number of squashed instructions issued
system.switch_cpus_1.iq.iqSquashedOperandsExamined      9043557                       # Number of squashed operands that are examined and possibly removed from graph
system.switch_cpus_1.iq.issued_per_cycle::samples    274566896                       # Number of insts issued each cycle
system.switch_cpus_1.iq.issued_per_cycle::mean     2.316650                       # Number of insts issued each cycle
system.switch_cpus_1.iq.issued_per_cycle::stdev     2.427663                       # Number of insts issued each cycle
system.switch_cpus_1.iq.issued_per_cycle::underflows            0      0.00%      0.00% # Number of insts issued each cycle
system.switch_cpus_1.iq.issued_per_cycle::0    120173538     43.77%     43.77% # Number of insts issued each cycle
system.switch_cpus_1.iq.issued_per_cycle::1      8417299      3.07%     46.83% # Number of insts issued each cycle
system.switch_cpus_1.iq.issued_per_cycle::2     21507024      7.83%     54.67% # Number of insts issued each cycle
system.switch_cpus_1.iq.issued_per_cycle::3     31426871     11.45%     66.11% # Number of insts issued each cycle
system.switch_cpus_1.iq.issued_per_cycle::4     29515411     10.75%     76.86% # Number of insts issued each cycle
system.switch_cpus_1.iq.issued_per_cycle::5     29950892     10.91%     87.77% # Number of insts issued each cycle
system.switch_cpus_1.iq.issued_per_cycle::6     17734927      6.46%     94.23% # Number of insts issued each cycle
system.switch_cpus_1.iq.issued_per_cycle::7     10589713      3.86%     98.09% # Number of insts issued each cycle
system.switch_cpus_1.iq.issued_per_cycle::8      5251221      1.91%    100.00% # Number of insts issued each cycle
system.switch_cpus_1.iq.issued_per_cycle::overflows            0      0.00%    100.00% # Number of insts issued each cycle
system.switch_cpus_1.iq.issued_per_cycle::min_value            0                       # Number of insts issued each cycle
system.switch_cpus_1.iq.issued_per_cycle::max_value            8                       # Number of insts issued each cycle
system.switch_cpus_1.iq.issued_per_cycle::total    274566896                       # Number of insts issued each cycle
system.switch_cpus_1.iq.rate                 2.316643                       # Inst issue rate
system.switch_cpus_1.iq.vec_alu_accesses            0                       # Number of vector alu accesses
system.switch_cpus_1.iq.vec_inst_queue_reads            0                       # Number of vector instruction queue reads
system.switch_cpus_1.iq.vec_inst_queue_wakeup_accesses            0                       # Number of vector instruction queue wakeup accesses
system.switch_cpus_1.iq.vec_inst_queue_writes            0                       # Number of vector instruction queue writes
system.switch_cpus_1.itb.rdAccesses                 0                       # TLB accesses on read requests
system.switch_cpus_1.itb.rdMisses                   0                       # TLB misses on read requests
system.switch_cpus_1.itb.wrAccesses          32693772                       # TLB accesses on write requests
system.switch_cpus_1.itb.wrMisses                  26                       # TLB misses on write requests
system.switch_cpus_1.memDep0.conflictingLoads     10669968                       # Number of conflicting loads.
system.switch_cpus_1.memDep0.conflictingStores     15875850                       # Number of conflicting stores.
system.switch_cpus_1.memDep0.insertedLoads    180275574                       # Number of loads inserted to the mem dependence unit.
system.switch_cpus_1.memDep0.insertedStores     64146396                       # Number of stores inserted to the mem dependence unit.
system.switch_cpus_1.misc_regfile_reads     285133997                       # number of misc regfile reads
system.switch_cpus_1.numCycles              274567708                       # number of cpu cycles simulated
system.switch_cpus_1.numWorkItemsCompleted            0                       # number of work items this cpu completed
system.switch_cpus_1.numWorkItemsStarted            0                       # number of work items this cpu started
system.switch_cpus_1.rename.BlockCycles      14995517                       # Number of cycles rename is blocking
system.switch_cpus_1.rename.CommittedMaps    880904282                       # Number of HB maps that are committed
system.switch_cpus_1.rename.IQFullEvents      1575236                       # Number of times rename has blocked due to IQ full
system.switch_cpus_1.rename.IdleCycles       20434821                       # Number of cycles rename is idle
system.switch_cpus_1.rename.LQFullEvents     41315737                       # Number of times rename has blocked due to LQ full
system.switch_cpus_1.rename.ROBFullEvents      3833886                       # Number of times rename has blocked due to ROB full
system.switch_cpus_1.rename.RenameLookups   2262952449                       # Number of register rename lookups that rename has made
system.switch_cpus_1.rename.RenamedInsts    639189099                       # Number of instructions processed by rename
system.switch_cpus_1.rename.RenamedOperands    889983243                       # Number of destination operands rename has renamed
system.switch_cpus_1.rename.RunCycles        70982262                       # Number of cycles rename is running
system.switch_cpus_1.rename.SQFullEvents    115891731                       # Number of times rename has blocked due to SQ full
system.switch_cpus_1.rename.SquashCycles       119576                       # Number of cycles rename is squashing
system.switch_cpus_1.rename.UnblockCycles    168034708                       # Number of cycles rename is unblocking
system.switch_cpus_1.rename.UndoneMaps        9078666                       # Number of HB maps that are undone due to squashing
system.switch_cpus_1.rename.fp_rename_lookups      4151639                       # Number of floating rename lookups
system.switch_cpus_1.rename.int_rename_lookups   1296920287                       # Number of integer rename lookups
system.switch_cpus_1.rename.serializeStallCycles            0                       # count of cycles rename stalled for serializing inst
system.switch_cpus_1.rename.serializingInsts            0                       # count of serializing insts renamed
system.switch_cpus_1.rename.skidInsts       123975783                       # count of insts added to the skid buffer
system.switch_cpus_1.rename.tempSerializingInsts            0                       # count of temporary serializing insts renamed
system.switch_cpus_1.rob.rob_reads          860152771                       # The number of ROB reads
system.switch_cpus_1.rob.rob_writes        1276803651                       # The number of ROB writes
system.switch_cpus_1.timesIdled                    14                       # Number of times that the entire CPU went into an idle state and unscheduled itself
system.tol2bus.snoop_filter.hit_multi_requests           53                       # Number of requests hitting in the snoop filter with multiple (>1) holders of the requested data.
system.tol2bus.snoop_filter.hit_multi_snoops           10                       # Number of snoops hitting in the snoop filter with multiple (>1) holders of the requested data.
system.tol2bus.snoop_filter.hit_single_requests      2702739                       # Number of requests hitting in the snoop filter with a single holder of the requested data.
system.tol2bus.snoop_filter.hit_single_snoops       146220                       # Number of snoops hitting in the snoop filter with a single holder of the requested data.
system.tol2bus.snoop_filter.tot_requests      5404650                       # Total number of requests made to the snoop filter.
system.tol2bus.snoop_filter.tot_snoops         146230                       # Total number of snoops made to the snoop filter.
system.tol3bus.snoop_filter.hit_multi_requests            0                       # Number of requests hitting in the snoop filter with multiple (>1) holders of the requested data.
system.tol3bus.snoop_filter.hit_multi_snoops            0                       # Number of snoops hitting in the snoop filter with multiple (>1) holders of the requested data.
system.tol3bus.snoop_filter.hit_single_requests      1265398                       # Number of requests hitting in the snoop filter with a single holder of the requested data.
system.tol3bus.snoop_filter.hit_single_snoops       637505                       # Number of snoops hitting in the snoop filter with a single holder of the requested data.
system.tol3bus.snoop_filter.tot_requests      2530742                       # Total number of requests made to the snoop filter.
system.tol3bus.snoop_filter.tot_snoops         637505                       # Total number of snoops made to the snoop filter.
system.membus.trans_dist::ReadResp              41985                       # Transaction distribution
system.membus.trans_dist::WritebackDirty       608967                       # Transaction distribution
system.membus.trans_dist::CleanEvict            41046                       # Transaction distribution
system.membus.trans_dist::ReadExReq            608339                       # Transaction distribution
system.membus.trans_dist::ReadExResp           608338                       # Transaction distribution
system.membus.trans_dist::ReadSharedReq         41985                       # Transaction distribution
system.membus.pkt_count_system.l3.mem_side::system.mem_ctrls.port      1950660                       # Packet count per connected master and slave (bytes)
system.membus.pkt_count_system.l3.mem_side::total      1950660                       # Packet count per connected master and slave (bytes)
system.membus.pkt_count::total                1950660                       # Packet count per connected master and slave (bytes)
system.membus.pkt_size_system.l3.mem_side::system.mem_ctrls.port     80594560                       # Cumulative packet size per connected master and slave (bytes)
system.membus.pkt_size_system.l3.mem_side::total     80594560                       # Cumulative packet size per connected master and slave (bytes)
system.membus.pkt_size::total                80594560                       # Cumulative packet size per connected master and slave (bytes)
system.membus.snoops                                0                       # Total snoops (count)
system.membus.snoopTraffic                          0                       # Total snoop traffic (bytes)
system.membus.snoop_fanout::samples            650324                       # Request fanout histogram
system.membus.snoop_fanout::mean                    0                       # Request fanout histogram
system.membus.snoop_fanout::stdev                   0                       # Request fanout histogram
system.membus.snoop_fanout::underflows              0      0.00%      0.00% # Request fanout histogram
system.membus.snoop_fanout::0                  650324    100.00%    100.00% # Request fanout histogram
system.membus.snoop_fanout::1                       0      0.00%    100.00% # Request fanout histogram
system.membus.snoop_fanout::overflows               0      0.00%    100.00% # Request fanout histogram
system.membus.snoop_fanout::min_value               0                       # Request fanout histogram
system.membus.snoop_fanout::max_value               0                       # Request fanout histogram
system.membus.snoop_fanout::total              650324                       # Request fanout histogram
system.membus.reqLayer2.occupancy          3868997000                       # Layer occupancy (ticks)
system.membus.reqLayer2.utilization               2.8                       # Layer utilization (%)
system.membus.respLayer1.occupancy         3468624000                       # Layer occupancy (ticks)
system.membus.respLayer1.utilization              2.5                       # Layer utilization (%)
system.membus.power_state.pwrStateResidencyTicks::UNDEFINED 1208775668000                       # Cumulative time (in ticks) in various power states
system.switch_cpus_1.dtb.walker.power_state.pwrStateResidencyTicks::UNDEFINED 1208775668000                       # Cumulative time (in ticks) in various power states
system.switch_cpus_1.itb.walker.power_state.pwrStateResidencyTicks::UNDEFINED 1208775668000                       # Cumulative time (in ticks) in various power states
system.switch_cpus_1.power_state.pwrStateResidencyTicks::OFF 1208775668000                       # Cumulative time (in ticks) in various power states
system.switch_cpus.dtb.walker.power_state.pwrStateResidencyTicks::UNDEFINED 1208775668000                       # Cumulative time (in ticks) in various power states
system.switch_cpus.itb.walker.power_state.pwrStateResidencyTicks::UNDEFINED 1208775668000                       # Cumulative time (in ticks) in various power states
system.switch_cpus.power_state.numTransitions            1                       # Number of power state transitions
system.switch_cpus.power_state.pwrStateResidencyTicks::OFF 1208775668000                       # Cumulative time (in ticks) in various power states
system.tol2bus.trans_dist::ReadResp           1494123                       # Transaction distribution
system.tol2bus.trans_dist::WritebackDirty      3147144                       # Transaction distribution
system.tol2bus.trans_dist::WritebackClean           57                       # Transaction distribution
system.tol2bus.trans_dist::CleanEvict         1461154                       # Transaction distribution
system.tol2bus.trans_dist::UpgradeReq             829                       # Transaction distribution
system.tol2bus.trans_dist::UpgradeResp            829                       # Transaction distribution
system.tol2bus.trans_dist::ReadExReq          1207788                       # Transaction distribution
system.tol2bus.trans_dist::ReadExResp         1207787                       # Transaction distribution
system.tol2bus.trans_dist::ReadCleanReq            57                       # Transaction distribution
system.tol2bus.trans_dist::ReadSharedReq      1494066                       # Transaction distribution
system.tol2bus.pkt_count_system.cpu.icache.mem_side::system.l2.cpu_side          171                       # Packet count per connected master and slave (bytes)
system.tol2bus.pkt_count_system.cpu.dcache.mem_side::system.l2.cpu_side      8107218                       # Packet count per connected master and slave (bytes)
system.tol2bus.pkt_count::total               8107389                       # Packet count per connected master and slave (bytes)
system.tol2bus.pkt_size_system.cpu.icache.mem_side::system.l2.cpu_side         7296                       # Cumulative packet size per connected master and slave (bytes)
system.tol2bus.pkt_size_system.cpu.dcache.mem_side::system.l2.cpu_side    297435136                       # Cumulative packet size per connected master and slave (bytes)
system.tol2bus.pkt_size::total              297442432                       # Cumulative packet size per connected master and slave (bytes)
system.tol2bus.snoops                         1906445                       # Total snoops (count)
system.tol2bus.snoopTraffic                  76900672                       # Total snoop traffic (bytes)
system.tol2bus.snoop_fanout::samples          4609185                       # Request fanout histogram
system.tol2bus.snoop_fanout::mean            0.031739                       # Request fanout histogram
system.tol2bus.snoop_fanout::stdev           0.175318                       # Request fanout histogram
system.tol2bus.snoop_fanout::underflows             0      0.00%      0.00% # Request fanout histogram
system.tol2bus.snoop_fanout::0                4462902     96.83%     96.83% # Request fanout histogram
system.tol2bus.snoop_fanout::1                 146273      3.17%    100.00% # Request fanout histogram
system.tol2bus.snoop_fanout::2                     10      0.00%    100.00% # Request fanout histogram
system.tol2bus.snoop_fanout::3                      0      0.00%    100.00% # Request fanout histogram
system.tol2bus.snoop_fanout::4                      0      0.00%    100.00% # Request fanout histogram
system.tol2bus.snoop_fanout::overflows              0      0.00%    100.00% # Request fanout histogram
system.tol2bus.snoop_fanout::min_value              0                       # Request fanout histogram
system.tol2bus.snoop_fanout::max_value              2                       # Request fanout histogram
system.tol2bus.snoop_fanout::total            4609185                       # Request fanout histogram
system.tol2bus.reqLayer0.occupancy         4647953000                       # Layer occupancy (ticks)
system.tol2bus.reqLayer0.utilization              3.4                       # Layer utilization (%)
system.tol2bus.respLayer1.occupancy        4053194000                       # Layer occupancy (ticks)
system.tol2bus.respLayer1.utilization             3.0                       # Layer utilization (%)
system.tol2bus.respLayer0.occupancy             85500                       # Layer occupancy (ticks)
system.tol2bus.respLayer0.utilization             0.0                       # Layer utilization (%)
system.tol2bus.power_state.pwrStateResidencyTicks::UNDEFINED 1208775668000                       # Cumulative time (in ticks) in various power states
system.voltage_domain.voltage                       1                       # Voltage in Volts
system.clk_domain.clock                          1000                       # Clock period in ticks
system.l2.demand_hits::.switch_cpus_1.inst            1                       # number of demand (read+write) hits
system.l2.demand_hits::.switch_cpus_1.data      1436513                       # number of demand (read+write) hits
system.l2.demand_hits::total                  1436514                       # number of demand (read+write) hits
system.l2.overall_hits::.switch_cpus_1.inst            1                       # number of overall hits
system.l2.overall_hits::.switch_cpus_1.data      1436513                       # number of overall hits
system.l2.overall_hits::total                 1436514                       # number of overall hits
system.l2.demand_misses::.switch_cpus_1.inst           56                       # number of demand (read+write) misses
system.l2.demand_misses::.switch_cpus_1.data      1265341                       # number of demand (read+write) misses
system.l2.demand_misses::total                1265397                       # number of demand (read+write) misses
system.l2.overall_misses::.switch_cpus_1.inst           56                       # number of overall misses
system.l2.overall_misses::.switch_cpus_1.data      1265341                       # number of overall misses
system.l2.overall_misses::total               1265397                       # number of overall misses
system.l2.demand_miss_latency::.switch_cpus_1.inst      5385000                       # number of demand (read+write) miss cycles
system.l2.demand_miss_latency::.switch_cpus_1.data  73065509500                       # number of demand (read+write) miss cycles
system.l2.demand_miss_latency::total      73070894500                       # number of demand (read+write) miss cycles
system.l2.overall_miss_latency::.switch_cpus_1.inst      5385000                       # number of overall miss cycles
system.l2.overall_miss_latency::.switch_cpus_1.data  73065509500                       # number of overall miss cycles
system.l2.overall_miss_latency::total     73070894500                       # number of overall miss cycles
system.l2.demand_accesses::.switch_cpus_1.inst           57                       # number of demand (read+write) accesses
system.l2.demand_accesses::.switch_cpus_1.data      2701854                       # number of demand (read+write) accesses
system.l2.demand_accesses::total              2701911                       # number of demand (read+write) accesses
system.l2.overall_accesses::.switch_cpus_1.inst           57                       # number of overall (read+write) accesses
system.l2.overall_accesses::.switch_cpus_1.data      2701854                       # number of overall (read+write) accesses
system.l2.overall_accesses::total             2701911                       # number of overall (read+write) accesses
system.l2.demand_miss_rate::.switch_cpus_1.inst     0.982456                       # miss rate for demand accesses
system.l2.demand_miss_rate::.switch_cpus_1.data     0.468323                       # miss rate for demand accesses
system.l2.demand_miss_rate::total            0.468334                       # miss rate for demand accesses
system.l2.overall_miss_rate::.switch_cpus_1.inst     0.982456                       # miss rate for overall accesses
system.l2.overall_miss_rate::.switch_cpus_1.data     0.468323                       # miss rate for overall accesses
system.l2.overall_miss_rate::total           0.468334                       # miss rate for overall accesses
[...]
system.cpu.dcache.demand_miss_rate::.switch_cpus.data     0.010974                       # miss rate for demand accesses
system.cpu.dcache.demand_miss_rate::.switch_cpus_1.data     0.013383                       # miss rate for demand accesses
system.cpu.dcache.demand_miss_rate::total     0.011839                       # miss rate for demand accesses
system.cpu.dcache.overall_miss_rate::.cpu.data     0.011310                       # miss rate for overall accesses
system.cpu.dcache.overall_miss_rate::.switch_cpus.data     0.010974                       # miss rate for overall accesses
system.cpu.dcache.overall_miss_rate::.switch_cpus_1.data     0.013383                       # miss rate for overall accesses
system.cpu.dcache.overall_miss_rate::total     0.011841                       # miss rate for overall accesses
system.cpu.dcache.demand_avg_miss_latency::.switch_cpus.data 31299.537408                       # average overall miss latency
system.cpu.dcache.demand_avg_miss_latency::.switch_cpus_1.data 28941.004508                       # average overall miss latency
system.cpu.dcache.demand_avg_miss_latency::total 10678.349083                       # average overall miss latency
system.cpu.dcache.overall_avg_miss_latency::.switch_cpus.data 31299.537408                       # average overall miss latency
system.cpu.dcache.overall_avg_miss_latency::.switch_cpus_1.data 28941.004508                       # average overall miss latency
system.cpu.dcache.overall_avg_miss_latency::total 10676.838105                       # average overall miss latency
system.cpu.dcache.blocked_cycles::no_mshrs       206258                       # number of cycles access was blocked
system.cpu.dcache.blocked_cycles::no_targets          323                       # number of cycles access was blocked
system.cpu.dcache.blocked::no_mshrs             23262                       # number of cycles access was blocked
system.cpu.dcache.blocked::no_targets               5                       # number of cycles access was blocked
system.cpu.dcache.avg_blocked_cycles::no_mshrs     8.866735                       # average number of cycles each access was blocked
system.cpu.dcache.avg_blocked_cycles::no_targets    64.600000                       # average number of cycles each access was blocked
system.cpu.dcache.writebacks::.writebacks      7401353                       # number of writebacks
system.cpu.dcache.writebacks::total           7401353                       # number of writebacks
system.cpu.dcache.demand_mshr_hits::.switch_cpus_1.data       407304                       # number of demand (read+write) MSHR hits
system.cpu.dcache.demand_mshr_hits::total       407304                       # number of demand (read+write) MSHR hits
system.cpu.dcache.overall_mshr_hits::.switch_cpus_1.data       407304                       # number of overall MSHR hits
system.cpu.dcache.overall_mshr_hits::total       407304                       # number of overall MSHR hits
system.cpu.dcache.demand_mshr_misses::.switch_cpus.data       639224                       # number of demand (read+write) MSHR misses
system.cpu.dcache.demand_mshr_misses::.switch_cpus_1.data      2702683                       # number of demand (read+write) MSHR misses
system.cpu.dcache.demand_mshr_misses::total      3341907                       # number of demand (read+write) MSHR misses
system.cpu.dcache.overall_mshr_misses::.switch_cpus.data       639224                       # number of overall MSHR misses
system.cpu.dcache.overall_mshr_misses::.switch_cpus_1.data      2702683                       # number of overall MSHR misses
system.cpu.dcache.overall_mshr_misses::total      3341907                       # number of overall MSHR misses
system.cpu.dcache.demand_mshr_miss_latency::.switch_cpus.data  19687803500                       # number of demand (read+write) MSHR miss cycles
system.cpu.dcache.demand_mshr_miss_latency::.switch_cpus_1.data  84085101813                       # number of demand (read+write) MSHR miss cycles
system.cpu.dcache.demand_mshr_miss_latency::total 103772905313                       # number of demand (read+write) MSHR miss cycles
system.cpu.dcache.overall_mshr_miss_latency::.switch_cpus.data  19687803500                       # number of overall MSHR miss cycles
system.cpu.dcache.overall_mshr_miss_latency::.switch_cpus_1.data  84085101813                       # number of overall MSHR miss cycles
system.cpu.dcache.overall_mshr_miss_latency::total 103772905313                       # number of overall MSHR miss cycles
system.cpu.dcache.demand_mshr_miss_rate::.switch_cpus.data     0.010974                       # mshr miss rate for demand accesses
system.cpu.dcache.demand_mshr_miss_rate::.switch_cpus_1.data     0.011630                       # mshr miss rate for demand accesses
system.cpu.dcache.demand_mshr_miss_rate::total     0.003840                       # mshr miss rate for demand accesses
system.cpu.dcache.overall_mshr_miss_rate::.switch_cpus.data     0.010974                       # mshr miss rate for overall accesses
system.cpu.dcache.overall_mshr_miss_rate::.switch_cpus_1.data     0.011630                       # mshr miss rate for overall accesses
system.cpu.dcache.overall_mshr_miss_rate::total     0.003840                       # mshr miss rate for overall accesses
system.cpu.dcache.demand_avg_mshr_miss_latency::.switch_cpus.data 30799.537408                       # average overall mshr miss latency
system.cpu.dcache.demand_avg_mshr_miss_latency::.switch_cpus_1.data 31111.714475                       # average overall mshr miss latency
system.cpu.dcache.demand_avg_mshr_miss_latency::total 31052.002738                       # average overall mshr miss latency
system.cpu.dcache.overall_avg_mshr_miss_latency::.switch_cpus.data 30799.537408                       # average overall mshr miss latency
system.cpu.dcache.overall_avg_mshr_miss_latency::.switch_cpus_1.data 31111.714475                       # average overall mshr miss latency
system.cpu.dcache.overall_avg_mshr_miss_latency::total 31052.002738                       # average overall mshr miss latency
system.cpu.dcache.replacements                9895142                       # number of replacements
system.cpu.dcache.ReadReq_hits::.cpu.data    422800783                       # number of ReadReq hits
system.cpu.dcache.ReadReq_hits::.switch_cpus.data     42592000                       # number of ReadReq hits
system.cpu.dcache.ReadReq_hits::.switch_cpus_1.data    166590308                       # number of ReadReq hits
system.cpu.dcache.ReadReq_hits::total       631983091                       # number of ReadReq hits
system.cpu.dcache.ReadReq_misses::.cpu.data      3686913                       # number of ReadReq misses
system.cpu.dcache.ReadReq_misses::.switch_cpus.data       349627                       # number of ReadReq misses
system.cpu.dcache.ReadReq_misses::.switch_cpus_1.data      1899350                       # number of ReadReq misses
system.cpu.dcache.ReadReq_misses::total       5935890                       # number of ReadReq misses
system.cpu.dcache.ReadReq_miss_latency::.switch_cpus.data   3376277500                       # number of ReadReq miss cycles
system.cpu.dcache.ReadReq_miss_latency::.switch_cpus_1.data  19403587500                       # number of ReadReq miss cycles
system.cpu.dcache.ReadReq_miss_latency::total  22779865000                       # number of ReadReq miss cycles
system.cpu.dcache.ReadReq_accesses::.cpu.data    426487696                       # number of ReadReq accesses(hits+misses)
system.cpu.dcache.ReadReq_accesses::.switch_cpus.data     42941627                       # number of ReadReq accesses(hits+misses)
system.cpu.dcache.ReadReq_accesses::.switch_cpus_1.data    168489658                       # number of ReadReq accesses(hits+misses)
system.cpu.dcache.ReadReq_accesses::total    637918981                       # number of ReadReq accesses(hits+misses)
system.cpu.dcache.ReadReq_miss_rate::.cpu.data     0.008645                       # miss rate for ReadReq accesses
system.cpu.dcache.ReadReq_miss_rate::.switch_cpus.data     0.008142                       # miss rate for ReadReq accesses
system.cpu.dcache.ReadReq_miss_rate::.switch_cpus_1.data     0.011273                       # miss rate for ReadReq accesses
system.cpu.dcache.ReadReq_miss_rate::total     0.009305                       # miss rate for ReadReq accesses
system.cpu.dcache.ReadReq_avg_miss_latency::.switch_cpus.data  9656.798531                       # average ReadReq miss latency
system.cpu.dcache.ReadReq_avg_miss_latency::.switch_cpus_1.data 10215.909390                       # average ReadReq miss latency
system.cpu.dcache.ReadReq_avg_miss_latency::total  3837.649451                       # average ReadReq miss latency
system.cpu.dcache.ReadReq_mshr_hits::.switch_cpus_1.data       405283                       # number of ReadReq MSHR hits
system.cpu.dcache.ReadReq_mshr_hits::total       405283                       # number of ReadReq MSHR hits
system.cpu.dcache.ReadReq_mshr_misses::.switch_cpus.data       349627                       # number of ReadReq MSHR misses
system.cpu.dcache.ReadReq_mshr_misses::.switch_cpus_1.data      1494067                       # number of ReadReq MSHR misses
system.cpu.dcache.ReadReq_mshr_misses::total      1843694                       # number of ReadReq MSHR misses
system.cpu.dcache.ReadReq_mshr_miss_latency::.switch_cpus.data   3201464000                       # number of ReadReq MSHR miss cycles
system.cpu.dcache.ReadReq_mshr_miss_latency::.switch_cpus_1.data  14099982500                       # number of ReadReq MSHR miss cycles
system.cpu.dcache.ReadReq_mshr_miss_latency::total  17301446500                       # number of ReadReq MSHR miss cycles
system.cpu.dcache.ReadReq_mshr_miss_rate::.switch_cpus.data     0.008142                       # mshr miss rate for ReadReq accesses
system.cpu.dcache.ReadReq_mshr_miss_rate::.switch_cpus_1.data     0.008867                       # mshr miss rate for ReadReq accesses
system.cpu.dcache.ReadReq_mshr_miss_rate::total     0.002890                       # mshr miss rate for ReadReq accesses
system.cpu.dcache.ReadReq_avg_mshr_miss_latency::.switch_cpus.data  9156.798531                       # average ReadReq mshr miss latency
system.cpu.dcache.ReadReq_avg_mshr_miss_latency::.switch_cpus_1.data  9437.316064                       # average ReadReq mshr miss latency
system.cpu.dcache.ReadReq_avg_mshr_miss_latency::total  9384.120413                       # average ReadReq mshr miss latency
system.cpu.dcache.WriteReq_hits::.cpu.data    150214234                       # number of WriteReq hits
system.cpu.dcache.WriteReq_hits::.switch_cpus.data     15018698                       # number of WriteReq hits
system.cpu.dcache.WriteReq_hits::.switch_cpus_1.data     62682694                       # number of WriteReq hits
system.cpu.dcache.WriteReq_hits::total      227915626                       # number of WriteReq hits
system.cpu.dcache.WriteReq_misses::.cpu.data      2866364                       # number of WriteReq misses
system.cpu.dcache.WriteReq_misses::.switch_cpus.data       289597                       # number of WriteReq misses
system.cpu.dcache.WriteReq_misses::.switch_cpus_1.data      1210637                       # number of WriteReq misses
system.cpu.dcache.WriteReq_misses::total      4366598                       # number of WriteReq misses
system.cpu.dcache.WriteReq_miss_latency::.switch_cpus.data  16631138000                       # number of WriteReq miss cycles
system.cpu.dcache.WriteReq_miss_latency::.switch_cpus_1.data  70602560288                       # number of WriteReq miss cycles
system.cpu.dcache.WriteReq_miss_latency::total  87233698288                       # number of WriteReq miss cycles
system.cpu.dcache.WriteReq_accesses::.cpu.data    153080598                       # number of WriteReq accesses(hits+misses)
system.cpu.dcache.WriteReq_accesses::.switch_cpus.data     15308295                       # number of WriteReq accesses(hits+misses)
system.cpu.dcache.WriteReq_accesses::.switch_cpus_1.data     63893331                       # number of WriteReq accesses(hits+misses)
system.cpu.dcache.WriteReq_accesses::total    232282224                       # number of WriteReq accesses(hits+misses)
system.cpu.dcache.WriteReq_miss_rate::.cpu.data     0.018725                       # miss rate for WriteReq accesses
system.cpu.dcache.WriteReq_miss_rate::.switch_cpus.data     0.018918                       # miss rate for WriteReq accesses
system.cpu.dcache.WriteReq_miss_rate::.switch_cpus_1.data     0.018948                       # miss rate for WriteReq accesses
system.cpu.dcache.WriteReq_miss_rate::total     0.018799                       # miss rate for WriteReq accesses
system.cpu.dcache.WriteReq_avg_miss_latency::.switch_cpus.data 57428.557616                       # average WriteReq miss latency
system.cpu.dcache.WriteReq_avg_miss_latency::.switch_cpus_1.data 58318.521810                       # average WriteReq miss latency
system.cpu.dcache.WriteReq_avg_miss_latency::total 19977.496964                       # average WriteReq miss latency
system.cpu.dcache.WriteReq_mshr_hits::.switch_cpus_1.data         2021                       # number of WriteReq MSHR hits
system.cpu.dcache.WriteReq_mshr_hits::total         2021                       # number of WriteReq MSHR hits
system.cpu.dcache.WriteReq_mshr_misses::.switch_cpus.data       289597                       # number of WriteReq MSHR misses
system.cpu.dcache.WriteReq_mshr_misses::.switch_cpus_1.data      1208616                       # number of WriteReq MSHR misses
system.cpu.dcache.WriteReq_mshr_misses::total      1498213                       # number of WriteReq MSHR misses
system.cpu.dcache.WriteReq_mshr_miss_latency::.switch_cpus.data  16486339500                       # number of WriteReq MSHR miss cycles
system.cpu.dcache.WriteReq_mshr_miss_latency::.switch_cpus_1.data  69985119313                       # number of WriteReq MSHR miss cycles
system.cpu.dcache.WriteReq_mshr_miss_latency::total  86471458813                       # number of WriteReq MSHR miss cycles
system.cpu.dcache.WriteReq_mshr_miss_rate::.switch_cpus.data     0.018918                       # mshr miss rate for WriteReq accesses
system.cpu.dcache.WriteReq_mshr_miss_rate::.switch_cpus_1.data     0.018916                       # mshr miss rate for WriteReq accesses
system.cpu.dcache.WriteReq_mshr_miss_rate::total     0.006450                       # mshr miss rate for WriteReq accesses
system.cpu.dcache.WriteReq_avg_mshr_miss_latency::.switch_cpus.data 56928.557616                       # average WriteReq mshr miss latency
system.cpu.dcache.WriteReq_avg_mshr_miss_latency::.switch_cpus_1.data 57905.173614                       # average WriteReq mshr miss latency
system.cpu.dcache.WriteReq_avg_mshr_miss_latency::total 57716.398678                       # average WriteReq mshr miss latency
system.cpu.dcache.SoftPFReq_hits::.cpu.data         3898                       # number of SoftPFReq hits
system.cpu.dcache.SoftPFReq_hits::total          3898                       # number of SoftPFReq hits
system.cpu.dcache.SoftPFReq_misses::.cpu.data         1458                       # number of SoftPFReq misses
system.cpu.dcache.SoftPFReq_misses::total         1458                       # number of SoftPFReq misses
system.cpu.dcache.SoftPFReq_accesses::.cpu.data         5356                       # number of SoftPFReq accesses(hits+misses)
system.cpu.dcache.SoftPFReq_accesses::total         5356                       # number of SoftPFReq accesses(hits+misses)
system.cpu.dcache.SoftPFReq_miss_rate::.cpu.data     0.272218                       # miss rate for SoftPFReq accesses
system.cpu.dcache.SoftPFReq_miss_rate::total     0.272218                       # miss rate for SoftPFReq accesses
system.cpu.dcache.power_state.pwrStateResidencyTicks::UNDEFINED 1208775668000                       # Cumulative time (in ticks) in various power states
system.cpu.dcache.tags.tagsinuse           511.994812                       # Cycle average of tags in use
system.cpu.dcache.tags.total_refs           869799278                       # Total number of references to valid blocks.
system.cpu.dcache.tags.sampled_refs           9895654                       # Sample count of references to valid blocks.
system.cpu.dcache.tags.avg_refs             87.897099                       # Average number of references to valid blocks.
system.cpu.dcache.tags.warmup_cycle              1500                       # Cycle when the warmup percentage was hit.
system.cpu.dcache.tags.occ_blocks::.cpu.data   404.156893                       # Average occupied blocks per requestor
system.cpu.dcache.tags.occ_blocks::.switch_cpus.data    49.721764                       # Average occupied blocks per requestor
system.cpu.dcache.tags.occ_blocks::.switch_cpus_1.data    58.116155                       # Average occupied blocks per requestor
system.cpu.dcache.tags.occ_percent::.cpu.data     0.789369                       # Average percentage of cache occupancy
system.cpu.dcache.tags.occ_percent::.switch_cpus.data     0.097113                       # Average percentage of cache occupancy
system.cpu.dcache.tags.occ_percent::.switch_cpus_1.data     0.113508                       # Average percentage of cache occupancy
system.cpu.dcache.tags.occ_percent::total     0.999990                       # Average percentage of cache occupancy
system.cpu.dcache.tags.occ_task_id_blocks::1024          512                       # Occupied blocks per task id
system.cpu.dcache.tags.age_task_id_blocks_1024::0          146                       # Occupied blocks per task id
system.cpu.dcache.tags.age_task_id_blocks_1024::1          332                       # Occupied blocks per task id
system.cpu.dcache.tags.age_task_id_blocks_1024::2           21                       # Occupied blocks per task id
system.cpu.dcache.tags.age_task_id_blocks_1024::3           12                       # Occupied blocks per task id
system.cpu.dcache.tags.age_task_id_blocks_1024::4            1                       # Occupied blocks per task id
system.cpu.dcache.tags.occ_task_id_percent::1024            1                       # Percentage of cache occupancy per task id
system.cpu.dcache.tags.tag_accesses        3490721898                       # Number of tag accesses
system.cpu.dcache.tags.data_accesses       3490721898                       # Number of data accesses
system.cpu.dcache.tags.cache_friendly               0                       # Number of cache friendly accesses
system.cpu.dcache.tags.cache_averse         869799278                       # Number of cache averse accesses
system.cpu.dcache.tags.cache_friendly_victims            0                       # Number of cache friendly victims
system.cpu.dcache.tags.cache_averse_victims      9895654                       # Number of cache averse victims
system.cpu.dcache.tags.OPT_hits                     0                       # Number of OPT hits
system.cpu.dcache.tags.OPT_misses                   0                       # Number of OPT misses
system.cpu.dcache.tags.OPT_nan              870206561                       # Number of OPT nan
system.cpu.dcache.tags.power_state.pwrStateResidencyTicks::UNDEFINED 1208775668000                       # Cumulative time (in ticks) in various power states
system.cpu.power_state.numTransitions               2                       # Number of power state transitions
system.cpu.power_state.pwrStateResidencyTicks::ON 953490921500                       # Cumulative time (in ticks) in various power states
system.cpu.power_state.pwrStateResidencyTicks::OFF 255284746500                       # Cumulative time (in ticks) in various power states

---------- End Simulation Statistics   ----------
