
---------- Begin Simulation Statistics ----------
final_tick                                   88929000                       # Number of ticks from beginning of simulation (restored from checkpoints and never reset)
host_inst_rate                                 179671                       # Simulator instruction rate (inst/s)
host_mem_usage                                 719668                       # Number of bytes of host memory used
host_op_rate                                   361359                       # Simulator op (including micro ops) rate (op/s)
host_seconds                                     0.12                       # Real time elapsed on the host
host_tick_rate                              765078187                       # Simulator tick rate (ticks/s)
sim_freq                                 1000000000000                       # Frequency of simulated ticks
sim_insts                                       20869                       # Number of instructions simulated
sim_ops                                         41998                       # Number of ops (including micro ops) simulated
sim_seconds                                  0.000089                       # Number of seconds simulated
sim_ticks                                    88929000                       # Number of ticks simulated
system.cpu.committedInsts                           1                       # Number of instructions committed
system.cpu.committedOps                             1                       # Number of ops (including micro ops) committed
system.cpu.dtb.rdAccesses                           0                       # TLB accesses on read requests
system.cpu.dtb.rdMisses                             0                       # TLB misses on read requests
system.cpu.dtb.wrAccesses                           0                       # TLB accesses on write requests
system.cpu.dtb.wrMisses                             0                       # TLB misses on write requests
system.cpu.idle_fraction                            0                       # Percentage of idle cycles
system.cpu.itb.rdAccesses                           0                       # TLB accesses on read requests
system.cpu.itb.rdMisses                             0                       # TLB misses on read requests
system.cpu.itb.wrAccesses                           1                       # TLB accesses on write requests
system.cpu.itb.wrMisses                             1                       # TLB misses on write requests
system.cpu.not_idle_fraction                        1                       # Percentage of non-idle cycles
system.cpu.numCycles                                1                       # number of cpu cycles simulated
system.cpu.numWorkItemsCompleted                    0                       # number of work items this cpu completed
system.cpu.numWorkItemsStarted                      0                       # number of work items this cpu started
system.cpu.num_busy_cycles                          1                       # Number of busy cycles
system.cpu.num_conditional_control_insts            0                       # number of instructions that are conditional controls
system.cpu.num_fp_alu_accesses                      0                       # Number of float alu accesses
system.cpu.num_fp_insts                             0                       # number of float instructions
system.cpu.num_fp_register_reads                    0                       # number of times the floating registers were read
system.cpu.num_fp_register_writes                   0                       # number of times the floating registers were written
system.cpu.num_func_calls                           0                       # number of times a function call or return occured
system.cpu.num_idle_cycles                          0                       # Number of idle cycles
system.cpu.num_int_alu_accesses                     1                       # Number of integer alu accesses
system.cpu.num_int_insts                            1                       # number of integer instructions
system.cpu.num_int_register_reads                   3                       # number of times the integer registers were read
system.cpu.num_int_register_writes                  1                       # number of times the integer registers were written
system.cpu.num_load_insts                           0                       # Number of load instructions
system.cpu.num_mem_refs                             0                       # number of memory refs
system.cpu.num_store_insts                          0                       # Number of store instructions
system.cpu.num_vec_alu_accesses                     0                       # Number of vector alu accesses
system.cpu.num_vec_insts                            0                       # number of vector instructions
system.cpu.num_vec_register_reads                   0                       # number of times the vector registers were read
system.cpu.num_vec_register_writes                  0                       # number of times the vector registers were written
system.cpu.op_class::No_OpClass                     0      0.00%      0.00% # Class of executed instruction
system.cpu.op_class::IntAlu                         1    100.00%    100.00% # Class of executed instruction
system.cpu.op_class::IntMult                        0      0.00%    100.00% # Class of executed instruction
system.cpu.op_class::IntDiv                         0      0.00%    100.00% # Class of executed instruction
system.cpu.op_class::FloatAdd                       0      0.00%    100.00% # Class of executed instruction
system.cpu.op_class::FloatCmp                       0      0.00%    100.00% # Class of executed instruction
system.cpu.op_class::FloatCvt                       0      0.00%    100.00% # Class of executed instruction
system.cpu.op_class::FloatMult                      0      0.00%    100.00% # Class of executed instruction
system.cpu.op_class::FloatMultAcc                   0      0.00%    100.00% # Class of executed instruction
system.cpu.op_class::FloatDiv                       0      0.00%    100.00% # Class of executed instruction
system.cpu.op_class::FloatMisc                      0      0.00%    100.00% # Class of executed instruction
system.cpu.op_class::FloatSqrt                      0      0.00%    100.00% # Class of executed instruction
system.cpu.op_class::SimdAdd                        0      0.00%    100.00% # Class of executed instruction
system.cpu.op_class::SimdAddAcc                     0      0.00%    100.00% # Class of executed instruction
system.cpu.op_class::SimdAlu                        0      0.00%    100.00% # Class of executed instruction
system.cpu.op_class::SimdCmp                        0      0.00%    100.00% # Class of executed instruction
system.cpu.op_class::SimdCvt                        0      0.00%    100.00% # Class of executed instruction
system.cpu.op_class::SimdMisc                       0      0.00%    100.00% # Class of executed instruction
system.cpu.op_class::SimdMult                       0      0.00%    100.00% # Class of executed instruction
system.cpu.op_class::SimdMultAcc                    0      0.00%    100.00% # Class of executed instruction
system.cpu.op_class::SimdShift                      0      0.00%    100.00% # Class of executed instruction
system.cpu.op_class::SimdShiftAcc                   0      0.00%    100.00% # Class of executed instruction
system.cpu.op_class::SimdDiv                        0      0.00%    100.00% # Class of executed instruction
system.cpu.op_class::SimdSqrt                       0      0.00%    100.00% # Class of executed instruction
system.cpu.op_class::SimdFloatAdd                   0      0.00%    100.00% # Class of executed instruction
system.cpu.op_class::SimdFloatAlu                   0      0.00%    100.00% # Class of executed instruction
system.cpu.op_class::SimdFloatCmp                   0      0.00%    100.00% # Class of executed instruction
system.cpu.op_class::SimdFloatCvt                   0      0.00%    100.00% # Class of executed instruction
system.cpu.op_class::SimdFloatDiv                   0      0.00%    100.00% # Class of executed instruction
system.cpu.op_class::SimdFloatMisc                  0      0.00%    100.00% # Class of executed instruction
system.cpu.op_class::SimdFloatMult                  0      0.00%    100.00% # Class of executed instruction
system.cpu.op_class::SimdFloatMultAcc               0      0.00%    100.00% # Class of executed instruction
system.cpu.op_class::SimdFloatSqrt                  0      0.00%    100.00% # Class of executed instruction
system.cpu.op_class::SimdReduceAdd                  0      0.00%    100.00% # Class of executed instruction
system.cpu.op_class::SimdReduceAlu                  0      0.00%    100.00% # Class of executed instruction
system.cpu.op_class::SimdReduceCmp                  0      0.00%    100.00% # Class of executed instruction
system.cpu.op_class::SimdFloatReduceAdd             0      0.00%    100.00% # Class of executed instruction
system.cpu.op_class::SimdFloatReduceCmp             0      0.00%    100.00% # Class of executed instruction
system.cpu.op_class::SimdAes                        0      0.00%    100.00% # Class of executed instruction
system.cpu.op_class::SimdAesMix                     0      0.00%    100.00% # Class of executed instruction
system.cpu.op_class::SimdSha1Hash                   0      0.00%    100.00% # Class of executed instruction
system.cpu.op_class::SimdSha1Hash2                  0      0.00%    100.00% # Class of executed instruction
system.cpu.op_class::SimdSha256Hash                 0      0.00%    100.00% # Class of executed instruction
system.cpu.op_class::SimdSha256Hash2                0      0.00%    100.00% # Class of executed instruction
system.cpu.op_class::SimdShaSigma2                  0      0.00%    100.00% # Class of executed instruction
system.cpu.op_class::SimdShaSigma3                  0      0.00%    100.00% # Class of executed instruction
system.cpu.op_class::SimdPredAlu                    0      0.00%    100.00% # Class of executed instruction
system.cpu.op_class::MemRead                        0      0.00%    100.00% # Class of executed instruction
system.cpu.op_class::MemWrite                       0      0.00%    100.00% # Class of executed instruction
system.cpu.op_class::FloatMemRead                   0      0.00%    100.00% # Class of executed instruction
system.cpu.op_class::FloatMemWrite                  0      0.00%    100.00% # Class of executed instruction
system.cpu.op_class::IprAccess                      0      0.00%    100.00% # Class of executed instruction
system.cpu.op_class::InstPrefetch                   0      0.00%    100.00% # Class of executed instruction
system.cpu.op_class::total                          1                       # Class of executed instruction
system.cpu.workload.numSyscalls                    41                       # Number of system calls
system.membus.snoop_filter.hit_multi_requests            0                       # Number of requests hitting in the snoop filter with multiple (>1) holders of the requested data.
system.membus.snoop_filter.hit_multi_snoops            0                       # Number of snoops hitting in the snoop filter with multiple (>1) holders of the requested data.
system.membus.snoop_filter.hit_single_requests            0                       # Number of requests hitting in the snoop filter with a single holder of the requested data.
system.membus.snoop_filter.hit_single_snoops            0                       # Number of snoops hitting in the snoop filter with a single holder of the requested data.
system.membus.snoop_filter.tot_requests           847                       # Total number of requests made to the snoop filter.
system.membus.snoop_filter.tot_snoops               0                       # Total number of snoops made to the snoop filter.
system.switch_cpus.Branches                      3369                       # Number of branches fetched
system.switch_cpus.committedInsts               14180                       # Number of instructions committed
system.switch_cpus.committedOps                 28414                       # Number of ops (including micro ops) committed
system.switch_cpus.dtb.rdAccesses                2924                       # TLB accesses on read requests
system.switch_cpus.dtb.rdMisses                    95                       # TLB misses on read requests
system.switch_cpus.dtb.wrAccesses                1497                       # TLB accesses on write requests
system.switch_cpus.dtb.wrMisses                     8                       # TLB misses on write requests
system.switch_cpus.idle_fraction                    0                       # Percentage of idle cycles
system.switch_cpus.itb.rdAccesses                   0                       # TLB accesses on read requests
system.switch_cpus.itb.rdMisses                     0                       # TLB misses on read requests
system.switch_cpus.itb.wrAccesses               19067                       # TLB accesses on write requests
system.switch_cpus.itb.wrMisses                    60                       # TLB misses on write requests
system.switch_cpus.not_idle_fraction                1                       # Percentage of non-idle cycles
system.switch_cpus.numCycles                   156273                       # number of cpu cycles simulated
system.switch_cpus.numWorkItemsCompleted            0                       # number of work items this cpu completed
system.switch_cpus.numWorkItemsStarted              0                       # number of work items this cpu started
system.switch_cpus.num_busy_cycles             156273                       # Number of busy cycles
system.switch_cpus.num_cc_register_reads        19146                       # number of times the CC registers were read
system.switch_cpus.num_cc_register_writes         9827                       # number of times the CC registers were written
system.switch_cpus.num_conditional_control_insts         2745                       # number of instructions that are conditional controls
system.switch_cpus.num_fp_alu_accesses           1364                       # Number of float alu accesses
system.switch_cpus.num_fp_insts                  1364                       # number of float instructions
system.switch_cpus.num_fp_register_reads         2142                       # number of times the floating registers were read
system.switch_cpus.num_fp_register_writes         1052                       # number of times the floating registers were written
system.switch_cpus.num_func_calls                 451                       # number of times a function call or return occured
system.switch_cpus.num_idle_cycles                  0                       # Number of idle cycles
system.switch_cpus.num_int_alu_accesses         27510                       # Number of integer alu accesses
system.switch_cpus.num_int_insts                27510                       # number of integer instructions
system.switch_cpus.num_int_register_reads        52266                       # number of times the integer registers were read
system.switch_cpus.num_int_register_writes        22391                       # number of times the integer registers were written
system.switch_cpus.num_load_insts                2915                       # Number of load instructions
system.switch_cpus.num_mem_refs                  4409                       # number of memory refs
system.switch_cpus.num_store_insts               1494                       # Number of store instructions
system.switch_cpus.num_vec_alu_accesses             0                       # Number of vector alu accesses
system.switch_cpus.num_vec_insts                    0                       # number of vector instructions
system.switch_cpus.num_vec_register_reads            0                       # number of times the vector registers were read
system.switch_cpus.num_vec_register_writes            0                       # number of times the vector registers were written
system.switch_cpus.op_class::No_OpClass           153      0.54%      0.54% # Class of executed instruction
system.switch_cpus.op_class::IntAlu             22967     80.75%     81.29% # Class of executed instruction
system.switch_cpus.op_class::IntMult                7      0.02%     81.32% # Class of executed instruction
system.switch_cpus.op_class::IntDiv                 0      0.00%     81.32% # Class of executed instruction
system.switch_cpus.op_class::FloatAdd              12      0.04%     81.36% # Class of executed instruction
system.switch_cpus.op_class::FloatCmp               0      0.00%     81.36% # Class of executed instruction
system.switch_cpus.op_class::FloatCvt               0      0.00%     81.36% # Class of executed instruction
system.switch_cpus.op_class::FloatMult              0      0.00%     81.36% # Class of executed instruction
system.switch_cpus.op_class::FloatMultAcc            0      0.00%     81.36% # Class of executed instruction
system.switch_cpus.op_class::FloatDiv               0      0.00%     81.36% # Class of executed instruction
system.switch_cpus.op_class::FloatMisc              0      0.00%     81.36% # Class of executed instruction
system.switch_cpus.op_class::FloatSqrt              0      0.00%     81.36% # Class of executed instruction
system.switch_cpus.op_class::SimdAdd               80      0.28%     81.64% # Class of executed instruction
system.switch_cpus.op_class::SimdAddAcc             0      0.00%     81.64% # Class of executed instruction
system.switch_cpus.op_class::SimdAlu              239      0.84%     82.48% # Class of executed instruction
system.switch_cpus.op_class::SimdCmp                0      0.00%     82.48% # Class of executed instruction
system.switch_cpus.op_class::SimdCvt              284      1.00%     83.48% # Class of executed instruction
system.switch_cpus.op_class::SimdMisc             269      0.95%     84.42% # Class of executed instruction
system.switch_cpus.op_class::SimdMult               0      0.00%     84.42% # Class of executed instruction
system.switch_cpus.op_class::SimdMultAcc            0      0.00%     84.42% # Class of executed instruction
system.switch_cpus.op_class::SimdShift             21      0.07%     84.50% # Class of executed instruction
system.switch_cpus.op_class::SimdShiftAcc            0      0.00%     84.50% # Class of executed instruction
system.switch_cpus.op_class::SimdDiv                0      0.00%     84.50% # Class of executed instruction
system.switch_cpus.op_class::SimdSqrt               0      0.00%     84.50% # Class of executed instruction
system.switch_cpus.op_class::SimdFloatAdd            0      0.00%     84.50% # Class of executed instruction
system.switch_cpus.op_class::SimdFloatAlu            0      0.00%     84.50% # Class of executed instruction
system.switch_cpus.op_class::SimdFloatCmp            0      0.00%     84.50% # Class of executed instruction
system.switch_cpus.op_class::SimdFloatCvt            0      0.00%     84.50% # Class of executed instruction
system.switch_cpus.op_class::SimdFloatDiv            0      0.00%     84.50% # Class of executed instruction
system.switch_cpus.op_class::SimdFloatMisc            0      0.00%     84.50% # Class of executed instruction
system.switch_cpus.op_class::SimdFloatMult            0      0.00%     84.50% # Class of executed instruction
system.switch_cpus.op_class::SimdFloatMultAcc            0      0.00%     84.50% # Class of executed instruction
system.switch_cpus.op_class::SimdFloatSqrt            0      0.00%     84.50% # Class of executed instruction
system.switch_cpus.op_class::SimdReduceAdd            0      0.00%     84.50% # Class of executed instruction
system.switch_cpus.op_class::SimdReduceAlu            0      0.00%     84.50% # Class of executed instruction
system.switch_cpus.op_class::SimdReduceCmp            0      0.00%     84.50% # Class of executed instruction
system.switch_cpus.op_class::SimdFloatReduceAdd            0      0.00%     84.50% # Class of executed instruction
system.switch_cpus.op_class::SimdFloatReduceCmp            0      0.00%     84.50% # Class of executed instruction
system.switch_cpus.op_class::SimdAes                0      0.00%     84.50% # Class of executed instruction
system.switch_cpus.op_class::SimdAesMix             0      0.00%     84.50% # Class of executed instruction
system.switch_cpus.op_class::SimdSha1Hash            0      0.00%     84.50% # Class of executed instruction
system.switch_cpus.op_class::SimdSha1Hash2            0      0.00%     84.50% # Class of executed instruction
system.switch_cpus.op_class::SimdSha256Hash            0      0.00%     84.50% # Class of executed instruction
system.switch_cpus.op_class::SimdSha256Hash2            0      0.00%     84.50% # Class of executed instruction
system.switch_cpus.op_class::SimdShaSigma2            0      0.00%     84.50% # Class of executed instruction
system.switch_cpus.op_class::SimdShaSigma3            0      0.00%     84.50% # Class of executed instruction
system.switch_cpus.op_class::SimdPredAlu            0      0.00%     84.50% # Class of executed instruction
system.switch_cpus.op_class::MemRead             2613      9.19%     93.69% # Class of executed instruction
system.switch_cpus.op_class::MemWrite            1369      4.81%     98.50% # Class of executed instruction
system.switch_cpus.op_class::FloatMemRead          302      1.06%     99.56% # Class of executed instruction
system.switch_cpus.op_class::FloatMemWrite          125      0.44%    100.00% # Class of executed instruction
system.switch_cpus.op_class::IprAccess              0      0.00%    100.00% # Class of executed instruction
system.switch_cpus.op_class::InstPrefetch            0      0.00%    100.00% # Class of executed instruction
system.switch_cpus.op_class::total              28441                       # Class of executed instruction
system.switch_cpus_1.branchPred.BTBCorrect            0                       # Number of correct BTB predictions (this stat may not work properly.
system.switch_cpus_1.branchPred.BTBHitPct          nan                       # BTB Hit Percentage
system.switch_cpus_1.branchPred.BTBHits             0                       # Number of BTB hits
system.switch_cpus_1.branchPred.BTBLookups            0                       # Number of BTB lookups
system.switch_cpus_1.branchPred.RASInCorrect            6                       # Number of incorrect RAS predictions.
system.switch_cpus_1.branchPred.condIncorrect          703                       # Number of conditional branches incorrect
system.switch_cpus_1.branchPred.condPredicted         5634                       # Number of conditional branches predicted
system.switch_cpus_1.branchPred.indirectHits          228                       # Number of indirect target hits.
system.switch_cpus_1.branchPred.indirectLookups         2751                       # Number of indirect predictor lookups.
system.switch_cpus_1.branchPred.indirectMisses         2523                       # Number of indirect misses.
system.switch_cpus_1.branchPred.lookups          7006                       # Number of BP lookups
system.switch_cpus_1.branchPred.usedRAS           445                       # Number of times the RAS was used to get a target.
system.switch_cpus_1.branchPredindirectMispredicted          356                       # Number of mispredicted indirect branches.
system.switch_cpus_1.cc_regfile_reads           11996                       # number of cc regfile reads
system.switch_cpus_1.cc_regfile_writes           7156                       # number of cc regfile writes
system.switch_cpus_1.commit.amos                    0                       # Number of atomic instructions committed
system.switch_cpus_1.commit.branchMispredicts          710                       # The number of times a branch was mispredicted
system.switch_cpus_1.commit.branches             1597                       # Number of branches committed
system.switch_cpus_1.commit.bw_lim_events          650                       # number cycles where commit BW limit reached
system.switch_cpus_1.commit.commitNonSpecStalls           14                       # The number of times commit has been forced to stall to communicate backwards
system.switch_cpus_1.commit.commitSquashedInsts        22036                       # The number of squashed insts skipped by commit
system.switch_cpus_1.commit.committedInsts         6688                       # Number of instructions committed
system.switch_cpus_1.commit.committedOps        13583                       # Number of ops (including micro ops) committed
system.switch_cpus_1.commit.committed_per_cycle::samples        17500                       # Number of insts commited each cycle
system.switch_cpus_1.commit.committed_per_cycle::mean     0.776171                       # Number of insts commited each cycle
system.switch_cpus_1.commit.committed_per_cycle::stdev     1.878111                       # Number of insts commited each cycle
system.switch_cpus_1.commit.committed_per_cycle::underflows            0      0.00%      0.00% # Number of insts commited each cycle
system.switch_cpus_1.commit.committed_per_cycle::0        13612     77.78%     77.78% # Number of insts commited each cycle
system.switch_cpus_1.commit.committed_per_cycle::1         1054      6.02%     83.81% # Number of insts commited each cycle
system.switch_cpus_1.commit.committed_per_cycle::2          846      4.83%     88.64% # Number of insts commited each cycle
system.switch_cpus_1.commit.committed_per_cycle::3          577      3.30%     91.94% # Number of insts commited each cycle
system.switch_cpus_1.commit.committed_per_cycle::4          311      1.78%     93.71% # Number of insts commited each cycle
system.switch_cpus_1.commit.committed_per_cycle::5          177      1.01%     94.73% # Number of insts commited each cycle
system.switch_cpus_1.commit.committed_per_cycle::6          134      0.77%     95.49% # Number of insts commited each cycle
system.switch_cpus_1.commit.committed_per_cycle::7          139      0.79%     96.29% # Number of insts commited each cycle
system.switch_cpus_1.commit.committed_per_cycle::8          650      3.71%    100.00% # Number of insts commited each cycle
system.switch_cpus_1.commit.committed_per_cycle::overflows            0      0.00%    100.00% # Number of insts commited each cycle
system.switch_cpus_1.commit.committed_per_cycle::min_value            0                       # Number of insts commited each cycle
system.switch_cpus_1.commit.committed_per_cycle::max_value            8                       # Number of insts commited each cycle
system.switch_cpus_1.commit.committed_per_cycle::total        17500                       # Number of insts commited each cycle
system.switch_cpus_1.commit.fp_insts              946                       # Number of committed floating point instructions.
system.switch_cpus_1.commit.function_calls          108                       # Number of function calls committed.
system.switch_cpus_1.commit.int_insts           12961                       # Number of committed integer instructions.
system.switch_cpus_1.commit.loads                1395                       # Number of loads committed
system.switch_cpus_1.commit.membars                 0                       # Number of memory barriers committed
system.switch_cpus_1.commit.op_class_0::No_OpClass          142      1.05%      1.05% # Class of committed instruction
system.switch_cpus_1.commit.op_class_0::IntAlu        10800     79.51%     80.56% # Class of committed instruction
system.switch_cpus_1.commit.op_class_0::IntMult            2      0.01%     80.57% # Class of committed instruction
system.switch_cpus_1.commit.op_class_0::IntDiv            0      0.00%     80.57% # Class of committed instruction
system.switch_cpus_1.commit.op_class_0::FloatAdd           15      0.11%     80.68% # Class of committed instruction
system.switch_cpus_1.commit.op_class_0::FloatCmp            0      0.00%     80.68% # Class of committed instruction
system.switch_cpus_1.commit.op_class_0::FloatCvt            0      0.00%     80.68% # Class of committed instruction
system.switch_cpus_1.commit.op_class_0::FloatMult            0      0.00%     80.68% # Class of committed instruction
system.switch_cpus_1.commit.op_class_0::FloatMultAcc            0      0.00%     80.68% # Class of committed instruction
system.switch_cpus_1.commit.op_class_0::FloatDiv            0      0.00%     80.68% # Class of committed instruction
system.switch_cpus_1.commit.op_class_0::FloatMisc            0      0.00%     80.68% # Class of committed instruction
system.switch_cpus_1.commit.op_class_0::FloatSqrt            0      0.00%     80.68% # Class of committed instruction
system.switch_cpus_1.commit.op_class_0::SimdAdd           40      0.29%     80.98% # Class of committed instruction
system.switch_cpus_1.commit.op_class_0::SimdAddAcc            0      0.00%     80.98% # Class of committed instruction
system.switch_cpus_1.commit.op_class_0::SimdAlu          143      1.05%     82.03% # Class of committed instruction
system.switch_cpus_1.commit.op_class_0::SimdCmp            0      0.00%     82.03% # Class of committed instruction
system.switch_cpus_1.commit.op_class_0::SimdCvt          178      1.31%     83.34% # Class of committed instruction
system.switch_cpus_1.commit.op_class_0::SimdMisc          150      1.10%     84.44% # Class of committed instruction
system.switch_cpus_1.commit.op_class_0::SimdMult            0      0.00%     84.44% # Class of committed instruction
system.switch_cpus_1.commit.op_class_0::SimdMultAcc            0      0.00%     84.44% # Class of committed instruction
system.switch_cpus_1.commit.op_class_0::SimdShift           32      0.24%     84.68% # Class of committed instruction
system.switch_cpus_1.commit.op_class_0::SimdShiftAcc            0      0.00%     84.68% # Class of committed instruction
system.switch_cpus_1.commit.op_class_0::SimdDiv            0      0.00%     84.68% # Class of committed instruction
system.switch_cpus_1.commit.op_class_0::SimdSqrt            0      0.00%     84.68% # Class of committed instruction
system.switch_cpus_1.commit.op_class_0::SimdFloatAdd            0      0.00%     84.68% # Class of committed instruction
system.switch_cpus_1.commit.op_class_0::SimdFloatAlu            0      0.00%     84.68% # Class of committed instruction
system.switch_cpus_1.commit.op_class_0::SimdFloatCmp            0      0.00%     84.68% # Class of committed instruction
system.switch_cpus_1.commit.op_class_0::SimdFloatCvt            0      0.00%     84.68% # Class of committed instruction
system.switch_cpus_1.commit.op_class_0::SimdFloatDiv            0      0.00%     84.68% # Class of committed instruction
system.switch_cpus_1.commit.op_class_0::SimdFloatMisc            0      0.00%     84.68% # Class of committed instruction
system.switch_cpus_1.commit.op_class_0::SimdFloatMult            0      0.00%     84.68% # Class of committed instruction
system.switch_cpus_1.commit.op_class_0::SimdFloatMultAcc            0      0.00%     84.68% # Class of committed instruction
system.switch_cpus_1.commit.op_class_0::SimdFloatSqrt            0      0.00%     84.68% # Class of committed instruction
system.switch_cpus_1.commit.op_class_0::SimdReduceAdd            0      0.00%     84.68% # Class of committed instruction
system.switch_cpus_1.commit.op_class_0::SimdReduceAlu            0      0.00%     84.68% # Class of committed instruction
system.switch_cpus_1.commit.op_class_0::SimdReduceCmp            0      0.00%     84.68% # Class of committed instruction
system.switch_cpus_1.commit.op_class_0::SimdFloatReduceAdd            0      0.00%     84.68% # Class of committed instruction
system.switch_cpus_1.commit.op_class_0::SimdFloatReduceCmp            0      0.00%     84.68% # Class of committed instruction
system.switch_cpus_1.commit.op_class_0::SimdAes            0      0.00%     84.68% # Class of committed instruction
system.switch_cpus_1.commit.op_class_0::SimdAesMix            0      0.00%     84.68% # Class of committed instruction
system.switch_cpus_1.commit.op_class_0::SimdSha1Hash            0      0.00%     84.68% # Class of committed instruction
system.switch_cpus_1.commit.op_class_0::SimdSha1Hash2            0      0.00%     84.68% # Class of committed instruction
system.switch_cpus_1.commit.op_class_0::SimdSha256Hash            0      0.00%     84.68% # Class of committed instruction
system.switch_cpus_1.commit.op_class_0::SimdSha256Hash2            0      0.00%     84.68% # Class of committed instruction
system.switch_cpus_1.commit.op_class_0::SimdShaSigma2            0      0.00%     84.68% # Class of committed instruction
system.switch_cpus_1.commit.op_class_0::SimdShaSigma3            0      0.00%     84.68% # Class of committed instruction
system.switch_cpus_1.commit.op_class_0::SimdPredAlu            0      0.00%     84.68% # Class of committed instruction
system.switch_cpus_1.commit.op_class_0::MemRead         1179      8.68%     93.36% # Class of committed instruction
system.switch_cpus_1.commit.op_class_0::MemWrite          532      3.92%     97.28% # Class of committed instruction
system.switch_cpus_1.commit.op_class_0::FloatMemRead          216      1.59%     98.87% # Class of committed instruction
system.switch_cpus_1.commit.op_class_0::FloatMemWrite          154      1.13%    100.00% # Class of committed instruction
system.switch_cpus_1.commit.op_class_0::IprAccess            0      0.00%    100.00% # Class of committed instruction
system.switch_cpus_1.commit.op_class_0::InstPrefetch            0      0.00%    100.00% # Class of committed instruction
system.switch_cpus_1.commit.op_class_0::total        13583                       # Class of committed instruction
system.switch_cpus_1.commit.refs                 2081                       # Number of memory references committed
system.switch_cpus_1.commit.swp_count               0                       # Number of s/w prefetches committed
system.switch_cpus_1.commit.vec_insts               0                       # Number of committed Vector instructions.
system.switch_cpus_1.committedInsts              6688                       # Number of Instructions Simulated
system.switch_cpus_1.committedOps               13583                       # Number of Ops (including micro ops) Simulated
system.switch_cpus_1.cpi                     3.227422                       # CPI: Cycles Per Instruction
system.switch_cpus_1.cpi_total               3.227422                       # CPI: Total CPI of All Threads
system.switch_cpus_1.decode.BlockedCycles        11126                       # Number of cycles decode is blocked
system.switch_cpus_1.decode.DecodedInsts        48531                       # Number of instructions handled by decode
system.switch_cpus_1.decode.IdleCycles           2647                       # Number of cycles decode is idle
system.switch_cpus_1.decode.RunCycles            5090                       # Number of cycles decode is running
system.switch_cpus_1.decode.SquashCycles          727                       # Number of cycles decode is squashing
system.switch_cpus_1.decode.UnblockCycles         1308                       # Number of cycles decode is unblocking
system.switch_cpus_1.dtb.rdAccesses              3220                       # TLB accesses on read requests
system.switch_cpus_1.dtb.rdMisses                 169                       # TLB misses on read requests
system.switch_cpus_1.dtb.wrAccesses              1104                       # TLB accesses on write requests
system.switch_cpus_1.dtb.wrMisses                  56                       # TLB misses on write requests
system.switch_cpus_1.fetch.Branches              7006                       # Number of branches that fetch encountered
system.switch_cpus_1.fetch.CacheLines            3212                       # Number of cache lines fetched
system.switch_cpus_1.fetch.Cycles               18076                       # Number of cycles fetch has run and was not squashing or blocked
system.switch_cpus_1.fetch.IcacheSquashes          126                       # Number of outstanding Icache misses that were squashed
system.switch_cpus_1.fetch.IcacheWaitRetryStallCycles           81                       # Number of stall cycles due to full MSHR
system.switch_cpus_1.fetch.Insts                31251                       # Number of instructions fetch has processed
system.switch_cpus_1.fetch.MiscStallCycles           12                       # Number of cycles fetch has spent waiting on interrupts, or bad addresses, or out of MSHRs
system.switch_cpus_1.fetch.PendingTrapStallCycles          112                       # Number of stall cycles due to pending traps
system.switch_cpus_1.fetch.SquashCycles          1454                       # Number of cycles fetch has spent squashing
system.switch_cpus_1.fetch.branchRate        0.324577                       # Number of branch fetches per cycle
system.switch_cpus_1.fetch.icacheStallCycles         1893                       # Number of cycles fetch is stalled on an Icache miss
system.switch_cpus_1.fetch.predictedBranches          673                       # Number of branches that fetch has predicted taken
system.switch_cpus_1.fetch.rate              1.447811                       # Number of inst fetches per cycle
system.switch_cpus_1.fetch.rateDist::samples        20901                       # Number of instructions fetched each cycle (Total)
system.switch_cpus_1.fetch.rateDist::mean     2.948089                       # Number of instructions fetched each cycle (Total)
system.switch_cpus_1.fetch.rateDist::stdev     3.641341                       # Number of instructions fetched each cycle (Total)
system.switch_cpus_1.fetch.rateDist::underflows            0      0.00%      0.00% # Number of instructions fetched each cycle (Total)
system.switch_cpus_1.fetch.rateDist::0          11722     56.08%     56.08% # Number of instructions fetched each cycle (Total)
system.switch_cpus_1.fetch.rateDist::1            452      2.16%     58.25% # Number of instructions fetched each cycle (Total)
system.switch_cpus_1.fetch.rateDist::2            400      1.91%     60.16% # Number of instructions fetched each cycle (Total)
system.switch_cpus_1.fetch.rateDist::3            478      2.29%     62.45% # Number of instructions fetched each cycle (Total)
system.switch_cpus_1.fetch.rateDist::4            387      1.85%     64.30% # Number of instructions fetched each cycle (Total)
system.switch_cpus_1.fetch.rateDist::5            423      2.02%     66.32% # Number of instructions fetched each cycle (Total)
system.switch_cpus_1.fetch.rateDist::6            402      1.92%     68.25% # Number of instructions fetched each cycle (Total)
system.switch_cpus_1.fetch.rateDist::7            239      1.14%     69.39% # Number of instructions fetched each cycle (Total)
system.switch_cpus_1.fetch.rateDist::8           6398     30.61%    100.00% # Number of instructions fetched each cycle (Total)
system.switch_cpus_1.fetch.rateDist::overflows            0      0.00%    100.00% # Number of instructions fetched each cycle (Total)
system.switch_cpus_1.fetch.rateDist::min_value            0                       # Number of instructions fetched each cycle (Total)
system.switch_cpus_1.fetch.rateDist::max_value            8                       # Number of instructions fetched each cycle (Total)
system.switch_cpus_1.fetch.rateDist::total        20901                       # Number of instructions fetched each cycle (Total)
system.switch_cpus_1.fp_regfile_reads            2950                       # number of floating regfile reads
system.switch_cpus_1.fp_regfile_writes           1788                       # number of floating regfile writes
system.switch_cpus_1.idleCycles                   684                       # Total number of cycles that the CPU has spent unscheduled due to idling
system.switch_cpus_1.iew.branchMispredicts         1053                       # Number of branch mispredicts detected at execute
system.switch_cpus_1.iew.exec_branches           2634                       # Number of branches executed
system.switch_cpus_1.iew.exec_nop                   0                       # number of nop insts executed
system.switch_cpus_1.iew.exec_rate           1.227148                       # Inst execution rate
system.switch_cpus_1.iew.exec_refs               4285                       # number of memory reference insts executed
system.switch_cpus_1.iew.exec_stores             1102                       # Number of stores executed
system.switch_cpus_1.iew.exec_swp                   0                       # number of swp insts executed
system.switch_cpus_1.iew.iewBlockCycles          4306                       # Number of cycles IEW is blocking
system.switch_cpus_1.iew.iewDispLoadInsts         4280                       # Number of dispatched load instructions
system.switch_cpus_1.iew.iewDispNonSpecInsts           25                       # Number of dispatched non-speculative instructions
system.switch_cpus_1.iew.iewDispSquashedInsts           23                       # Number of squashed instructions skipped by dispatch
system.switch_cpus_1.iew.iewDispStoreInsts         1857                       # Number of dispatched store instructions
system.switch_cpus_1.iew.iewDispatchedInsts        36361                       # Number of instructions dispatched to IQ
system.switch_cpus_1.iew.iewExecLoadInsts         3183                       # Number of load instructions executed
system.switch_cpus_1.iew.iewExecSquashedInsts         1853                       # Number of squashed instructions skipped in execute
system.switch_cpus_1.iew.iewExecutedInsts        26488                       # Number of executed instructions
system.switch_cpus_1.iew.iewIQFullEvents           22                       # Number of times the IQ has become full, causing a stall
system.switch_cpus_1.iew.iewIdleCycles              0                       # Number of cycles IEW is idle
system.switch_cpus_1.iew.iewLSQFullEvents          878                       # Number of times the LSQ has become full, causing a stall
system.switch_cpus_1.iew.iewSquashCycles          727                       # Number of cycles IEW is squashing
system.switch_cpus_1.iew.iewUnblockCycles          907                       # Number of cycles IEW is unblocking
system.switch_cpus_1.iew.lsq.thread0.blockedLoads            0                       # Number of blocked loads due to partial load-store forwarding
system.switch_cpus_1.iew.lsq.thread0.cacheBlocked            1                       # Number of times an access to memory failed due to the cache being blocked
system.switch_cpus_1.iew.lsq.thread0.forwLoads          150                       # Number of loads that had data forwarded from stores
system.switch_cpus_1.iew.lsq.thread0.ignoredResponses            4                       # Number of memory responses ignored because the instruction is squashed
system.switch_cpus_1.iew.lsq.thread0.invAddrLoads            0                       # Number of loads ignored due to an invalid address
system.switch_cpus_1.iew.lsq.thread0.invAddrSwpfs            0                       # Number of software prefetches ignored due to an invalid address
system.switch_cpus_1.iew.lsq.thread0.memOrderViolation            6                       # Number of memory ordering violations
system.switch_cpus_1.iew.lsq.thread0.rescheduledLoads            0                       # Number of loads that were rescheduled
system.switch_cpus_1.iew.lsq.thread0.squashedLoads         2885                       # Number of loads squashed
system.switch_cpus_1.iew.lsq.thread0.squashedStores         1171                       # Number of stores squashed
system.switch_cpus_1.iew.memOrderViolationEvents            6                       # Number of memory order violations
system.switch_cpus_1.iew.predictedNotTakenIncorrect         1032                       # Number of branches that were predicted not taken incorrectly
system.switch_cpus_1.iew.predictedTakenIncorrect           21                       # Number of branches that were predicted taken incorrectly
system.switch_cpus_1.iew.wb_consumers           29898                       # num instructions consuming a value
system.switch_cpus_1.iew.wb_count               25754                       # cumulative count of insts written-back
system.switch_cpus_1.iew.wb_fanout           0.621981                       # average fanout of values written-back
system.switch_cpus_1.iew.wb_producers           18596                       # num instructions producing a value
system.switch_cpus_1.iew.wb_rate             1.193143                       # insts written-back per cycle
system.switch_cpus_1.iew.wb_sent                26282                       # cumulative count of insts sent to commit
system.switch_cpus_1.int_regfile_reads          33587                       # number of integer regfile reads
system.switch_cpus_1.int_regfile_writes         20284                       # number of integer regfile writes
system.switch_cpus_1.ipc                     0.309845                       # IPC: Instructions Per Cycle
system.switch_cpus_1.ipc_total               0.309845                       # IPC: Total IPC of All Threads
system.switch_cpus_1.iq.FU_type_0::No_OpClass          612      2.16%      2.16% # Type of FU issued
system.switch_cpus_1.iq.FU_type_0::IntAlu        21567     76.10%     78.26% # Type of FU issued
system.switch_cpus_1.iq.FU_type_0::IntMult            2      0.01%     78.26% # Type of FU issued
system.switch_cpus_1.iq.FU_type_0::IntDiv            7      0.02%     78.29% # Type of FU issued
system.switch_cpus_1.iq.FU_type_0::FloatAdd          147      0.52%     78.81% # Type of FU issued
system.switch_cpus_1.iq.FU_type_0::FloatCmp            0      0.00%     78.81% # Type of FU issued
system.switch_cpus_1.iq.FU_type_0::FloatCvt            0      0.00%     78.81% # Type of FU issued
system.switch_cpus_1.iq.FU_type_0::FloatMult            0      0.00%     78.81% # Type of FU issued
system.switch_cpus_1.iq.FU_type_0::FloatMultAcc            0      0.00%     78.81% # Type of FU issued
system.switch_cpus_1.iq.FU_type_0::FloatDiv            0      0.00%     78.81% # Type of FU issued
system.switch_cpus_1.iq.FU_type_0::FloatMisc            0      0.00%     78.81% # Type of FU issued
system.switch_cpus_1.iq.FU_type_0::FloatSqrt            0      0.00%     78.81% # Type of FU issued
system.switch_cpus_1.iq.FU_type_0::SimdAdd          110      0.39%     79.20% # Type of FU issued
system.switch_cpus_1.iq.FU_type_0::SimdAddAcc            0      0.00%     79.20% # Type of FU issued
system.switch_cpus_1.iq.FU_type_0::SimdAlu          347      1.22%     80.42% # Type of FU issued
system.switch_cpus_1.iq.FU_type_0::SimdCmp            0      0.00%     80.42% # Type of FU issued
system.switch_cpus_1.iq.FU_type_0::SimdCvt          395      1.39%     81.81% # Type of FU issued
system.switch_cpus_1.iq.FU_type_0::SimdMisc          216      0.76%     82.58% # Type of FU issued
system.switch_cpus_1.iq.FU_type_0::SimdMult            0      0.00%     82.58% # Type of FU issued
system.switch_cpus_1.iq.FU_type_0::SimdMultAcc            0      0.00%     82.58% # Type of FU issued
system.switch_cpus_1.iq.FU_type_0::SimdShift          124      0.44%     83.01% # Type of FU issued
system.switch_cpus_1.iq.FU_type_0::SimdShiftAcc            0      0.00%     83.01% # Type of FU issued
system.switch_cpus_1.iq.FU_type_0::SimdDiv            0      0.00%     83.01% # Type of FU issued
system.switch_cpus_1.iq.FU_type_0::SimdSqrt            0      0.00%     83.01% # Type of FU issued
system.switch_cpus_1.iq.FU_type_0::SimdFloatAdd            0      0.00%     83.01% # Type of FU issued
system.switch_cpus_1.iq.FU_type_0::SimdFloatAlu            0      0.00%     83.01% # Type of FU issued
system.switch_cpus_1.iq.FU_type_0::SimdFloatCmp            0      0.00%     83.01% # Type of FU issued
system.switch_cpus_1.iq.FU_type_0::SimdFloatCvt            0      0.00%     83.01% # Type of FU issued
system.switch_cpus_1.iq.FU_type_0::SimdFloatDiv            0      0.00%     83.01% # Type of FU issued
system.switch_cpus_1.iq.FU_type_0::SimdFloatMisc            0      0.00%     83.01% # Type of FU issued
system.switch_cpus_1.iq.FU_type_0::SimdFloatMult            0      0.00%     83.01% # Type of FU issued
system.switch_cpus_1.iq.FU_type_0::SimdFloatMultAcc            0      0.00%     83.01% # Type of FU issued
system.switch_cpus_1.iq.FU_type_0::SimdFloatSqrt            0      0.00%     83.01% # Type of FU issued
system.switch_cpus_1.iq.FU_type_0::SimdReduceAdd            0      0.00%     83.01% # Type of FU issued
system.switch_cpus_1.iq.FU_type_0::SimdReduceAlu            0      0.00%     83.01% # Type of FU issued
system.switch_cpus_1.iq.FU_type_0::SimdReduceCmp            0      0.00%     83.01% # Type of FU issued
system.switch_cpus_1.iq.FU_type_0::SimdFloatReduceAdd            0      0.00%     83.01% # Type of FU issued
system.switch_cpus_1.iq.FU_type_0::SimdFloatReduceCmp            0      0.00%     83.01% # Type of FU issued
system.switch_cpus_1.iq.FU_type_0::SimdAes            0      0.00%     83.01% # Type of FU issued
system.switch_cpus_1.iq.FU_type_0::SimdAesMix            0      0.00%     83.01% # Type of FU issued
system.switch_cpus_1.iq.FU_type_0::SimdSha1Hash            0      0.00%     83.01% # Type of FU issued
system.switch_cpus_1.iq.FU_type_0::SimdSha1Hash2            0      0.00%     83.01% # Type of FU issued
system.switch_cpus_1.iq.FU_type_0::SimdSha256Hash            0      0.00%     83.01% # Type of FU issued
system.switch_cpus_1.iq.FU_type_0::SimdSha256Hash2            0      0.00%     83.01% # Type of FU issued
system.switch_cpus_1.iq.FU_type_0::SimdShaSigma2            0      0.00%     83.01% # Type of FU issued
system.switch_cpus_1.iq.FU_type_0::SimdShaSigma3            0      0.00%     83.01% # Type of FU issued
system.switch_cpus_1.iq.FU_type_0::SimdPredAlu            0      0.00%     83.01% # Type of FU issued
system.switch_cpus_1.iq.FU_type_0::MemRead         2786      9.83%     92.84% # Type of FU issued
system.switch_cpus_1.iq.FU_type_0::MemWrite         1002      3.54%     96.38% # Type of FU issued
system.switch_cpus_1.iq.FU_type_0::FloatMemRead          797      2.81%     99.19% # Type of FU issued
system.switch_cpus_1.iq.FU_type_0::FloatMemWrite          229      0.81%    100.00% # Type of FU issued
system.switch_cpus_1.iq.FU_type_0::IprAccess            0      0.00%    100.00% # Type of FU issued
system.switch_cpus_1.iq.FU_type_0::InstPrefetch            0      0.00%    100.00% # Type of FU issued
system.switch_cpus_1.iq.FU_type_0::total        28341                       # Type of FU issued
system.switch_cpus_1.iq.fp_alu_accesses          2474                       # Number of floating point alu accesses
system.switch_cpus_1.iq.fp_inst_queue_reads         4949                       # Number of floating instruction queue reads
system.switch_cpus_1.iq.fp_inst_queue_wakeup_accesses         2028                       # Number of floating instruction queue wakeup accesses
system.switch_cpus_1.iq.fp_inst_queue_writes         5448                       # Number of floating instruction queue writes
system.switch_cpus_1.iq.fu_busy_cnt               771                       # FU busy when requested
system.switch_cpus_1.iq.fu_busy_rate         0.027204                       # FU busy rate (busy events/executed inst)
system.switch_cpus_1.iq.fu_full::No_OpClass            0      0.00%      0.00% # attempts to use FU when none available
system.switch_cpus_1.iq.fu_full::IntAlu           663     85.99%     85.99% # attempts to use FU when none available
system.switch_cpus_1.iq.fu_full::IntMult            0      0.00%     85.99% # attempts to use FU when none available
system.switch_cpus_1.iq.fu_full::IntDiv             0      0.00%     85.99% # attempts to use FU when none available
system.switch_cpus_1.iq.fu_full::FloatAdd            0      0.00%     85.99% # attempts to use FU when none available
system.switch_cpus_1.iq.fu_full::FloatCmp            0      0.00%     85.99% # attempts to use FU when none available
system.switch_cpus_1.iq.fu_full::FloatCvt            0      0.00%     85.99% # attempts to use FU when none available
system.switch_cpus_1.iq.fu_full::FloatMult            0      0.00%     85.99% # attempts to use FU when none available
system.switch_cpus_1.iq.fu_full::FloatMultAcc            0      0.00%     85.99% # attempts to use FU when none available
system.switch_cpus_1.iq.fu_full::FloatDiv            0      0.00%     85.99% # attempts to use FU when none available
system.switch_cpus_1.iq.fu_full::FloatMisc            0      0.00%     85.99% # attempts to use FU when none available
system.switch_cpus_1.iq.fu_full::FloatSqrt            0      0.00%     85.99% # attempts to use FU when none available
system.switch_cpus_1.iq.fu_full::SimdAdd            0      0.00%     85.99% # attempts to use FU when none available
system.switch_cpus_1.iq.fu_full::SimdAddAcc            0      0.00%     85.99% # attempts to use FU when none available
system.switch_cpus_1.iq.fu_full::SimdAlu           16      2.08%     88.07% # attempts to use FU when none available
system.switch_cpus_1.iq.fu_full::SimdCmp            0      0.00%     88.07% # attempts to use FU when none available
system.switch_cpus_1.iq.fu_full::SimdCvt            7      0.91%     88.98% # attempts to use FU when none available
system.switch_cpus_1.iq.fu_full::SimdMisc            8      1.04%     90.01% # attempts to use FU when none available
system.switch_cpus_1.iq.fu_full::SimdMult            0      0.00%     90.01% # attempts to use FU when none available
system.switch_cpus_1.iq.fu_full::SimdMultAcc            0      0.00%     90.01% # attempts to use FU when none available
system.switch_cpus_1.iq.fu_full::SimdShift            0      0.00%     90.01% # attempts to use FU when none available
system.switch_cpus_1.iq.fu_full::SimdShiftAcc            0      0.00%     90.01% # attempts to use FU when none available
system.switch_cpus_1.iq.fu_full::SimdDiv            0      0.00%     90.01% # attempts to use FU when none available
system.switch_cpus_1.iq.fu_full::SimdSqrt            0      0.00%     90.01% # attempts to use FU when none available
system.switch_cpus_1.iq.fu_full::SimdFloatAdd            0      0.00%     90.01% # attempts to use FU when none available
system.switch_cpus_1.iq.fu_full::SimdFloatAlu            0      0.00%     90.01% # attempts to use FU when none available
system.switch_cpus_1.iq.fu_full::SimdFloatCmp            0      0.00%     90.01% # attempts to use FU when none available
system.switch_cpus_1.iq.fu_full::SimdFloatCvt            0      0.00%     90.01% # attempts to use FU when none available
system.switch_cpus_1.iq.fu_full::SimdFloatDiv            0      0.00%     90.01% # attempts to use FU when none available
system.switch_cpus_1.iq.fu_full::SimdFloatMisc            0      0.00%     90.01% # attempts to use FU when none available
system.switch_cpus_1.iq.fu_full::SimdFloatMult            0      0.00%     90.01% # attempts to use FU when none available
system.switch_cpus_1.iq.fu_full::SimdFloatMultAcc            0      0.00%     90.01% # attempts to use FU when none available
system.switch_cpus_1.iq.fu_full::SimdFloatSqrt            0      0.00%     90.01% # attempts to use FU when none available
system.switch_cpus_1.iq.fu_full::SimdReduceAdd            0      0.00%     90.01% # attempts to use FU when none available
system.switch_cpus_1.iq.fu_full::SimdReduceAlu            0      0.00%     90.01% # attempts to use FU when none available
system.switch_cpus_1.iq.fu_full::SimdReduceCmp            0      0.00%     90.01% # attempts to use FU when none available
system.switch_cpus_1.iq.fu_full::SimdFloatReduceAdd            0      0.00%     90.01% # attempts to use FU when none available
system.switch_cpus_1.iq.fu_full::SimdFloatReduceCmp            0      0.00%     90.01% # attempts to use FU when none available
system.switch_cpus_1.iq.fu_full::SimdAes            0      0.00%     90.01% # attempts to use FU when none available
system.switch_cpus_1.iq.fu_full::SimdAesMix            0      0.00%     90.01% # attempts to use FU when none available
system.switch_cpus_1.iq.fu_full::SimdSha1Hash            0      0.00%     90.01% # attempts to use FU when none available
system.switch_cpus_1.iq.fu_full::SimdSha1Hash2            0      0.00%     90.01% # attempts to use FU when none available
system.switch_cpus_1.iq.fu_full::SimdSha256Hash            0      0.00%     90.01% # attempts to use FU when none available
system.switch_cpus_1.iq.fu_full::SimdSha256Hash2            0      0.00%     90.01% # attempts to use FU when none available
system.switch_cpus_1.iq.fu_full::SimdShaSigma2            0      0.00%     90.01% # attempts to use FU when none available
system.switch_cpus_1.iq.fu_full::SimdShaSigma3            0      0.00%     90.01% # attempts to use FU when none available
system.switch_cpus_1.iq.fu_full::SimdPredAlu            0      0.00%     90.01% # attempts to use FU when none available
system.switch_cpus_1.iq.fu_full::MemRead           27      3.50%     93.51% # attempts to use FU when none available
system.switch_cpus_1.iq.fu_full::MemWrite            6      0.78%     94.29% # attempts to use FU when none available
system.switch_cpus_1.iq.fu_full::FloatMemRead           21      2.72%     97.02% # attempts to use FU when none available
system.switch_cpus_1.iq.fu_full::FloatMemWrite           23      2.98%    100.00% # attempts to use FU when none available
system.switch_cpus_1.iq.fu_full::IprAccess            0      0.00%    100.00% # attempts to use FU when none available
system.switch_cpus_1.iq.fu_full::InstPrefetch            0      0.00%    100.00% # attempts to use FU when none available
system.switch_cpus_1.iq.int_alu_accesses        26026                       # Number of integer alu accesses
system.switch_cpus_1.iq.int_inst_queue_reads        74012                       # Number of integer instruction queue reads
system.switch_cpus_1.iq.int_inst_queue_wakeup_accesses        23726                       # Number of integer instruction queue wakeup accesses
system.switch_cpus_1.iq.int_inst_queue_writes        53696                       # Number of integer instruction queue writes
system.switch_cpus_1.iq.iqInstsAdded            36336                       # Number of instructions added to the IQ (excludes non-spec)
system.switch_cpus_1.iq.iqInstsIssued           28341                       # Number of instructions issued
system.switch_cpus_1.iq.iqNonSpecInstsAdded           25                       # Number of non-speculative instructions added to the IQ
system.switch_cpus_1.iq.iqSquashedInstsExamined        22778                       # Number of squashed instructions iterated over during squash; mainly for profiling
system.switch_cpus_1.iq.iqSquashedInstsIssued          607                       # Number of squashed instructions issued
system.switch_cpus_1.iq.iqSquashedNonSpecRemoved           11                       # Number of squashed non-spec instructions that were removed
system.switch_cpus_1.iq.iqSquashedOperandsExamined        31928                       # Number of squashed operands that are examined and possibly removed from graph
system.switch_cpus_1.iq.issued_per_cycle::samples        20901                       # Number of insts issued each cycle
system.switch_cpus_1.iq.issued_per_cycle::mean     1.355964                       # Number of insts issued each cycle
system.switch_cpus_1.iq.issued_per_cycle::stdev     2.378529                       # Number of insts issued each cycle
system.switch_cpus_1.iq.issued_per_cycle::underflows            0      0.00%      0.00% # Number of insts issued each cycle
system.switch_cpus_1.iq.issued_per_cycle::0        14437     69.07%     69.07% # Number of insts issued each cycle
system.switch_cpus_1.iq.issued_per_cycle::1          916      4.38%     73.46% # Number of insts issued each cycle
system.switch_cpus_1.iq.issued_per_cycle::2          815      3.90%     77.36% # Number of insts issued each cycle
system.switch_cpus_1.iq.issued_per_cycle::3          630      3.01%     80.37% # Number of insts issued each cycle
system.switch_cpus_1.iq.issued_per_cycle::4          889      4.25%     84.62% # Number of insts issued each cycle
system.switch_cpus_1.iq.issued_per_cycle::5          883      4.22%     88.85% # Number of insts issued each cycle
system.switch_cpus_1.iq.issued_per_cycle::6         1025      4.90%     93.75% # Number of insts issued each cycle
system.switch_cpus_1.iq.issued_per_cycle::7          664      3.18%     96.93% # Number of insts issued each cycle
system.switch_cpus_1.iq.issued_per_cycle::8          642      3.07%    100.00% # Number of insts issued each cycle
system.switch_cpus_1.iq.issued_per_cycle::overflows            0      0.00%    100.00% # Number of insts issued each cycle
system.switch_cpus_1.iq.issued_per_cycle::min_value            0                       # Number of insts issued each cycle
system.switch_cpus_1.iq.issued_per_cycle::max_value            8                       # Number of insts issued each cycle
system.switch_cpus_1.iq.issued_per_cycle::total        20901                       # Number of insts issued each cycle
system.switch_cpus_1.iq.rate                 1.312995                       # Inst issue rate
system.switch_cpus_1.iq.vec_alu_accesses            0                       # Number of vector alu accesses
system.switch_cpus_1.iq.vec_inst_queue_reads            0                       # Number of vector instruction queue reads
system.switch_cpus_1.iq.vec_inst_queue_wakeup_accesses            0                       # Number of vector instruction queue wakeup accesses
system.switch_cpus_1.iq.vec_inst_queue_writes            0                       # Number of vector instruction queue writes
system.switch_cpus_1.itb.rdAccesses                 0                       # TLB accesses on read requests
system.switch_cpus_1.itb.rdMisses                   0                       # TLB misses on read requests
system.switch_cpus_1.itb.wrAccesses              3235                       # TLB accesses on write requests
system.switch_cpus_1.itb.wrMisses                  58                       # TLB misses on write requests
system.switch_cpus_1.memDep0.conflictingLoads            8                       # Number of conflicting loads.
system.switch_cpus_1.memDep0.conflictingStores            0                       # Number of conflicting stores.
system.switch_cpus_1.memDep0.insertedLoads         4280                       # Number of loads inserted to the mem dependence unit.
system.switch_cpus_1.memDep0.insertedStores         1857                       # Number of stores inserted to the mem dependence unit.
system.switch_cpus_1.misc_regfile_reads         10434                       # number of misc regfile reads
system.switch_cpus_1.misc_regfile_writes            1                       # number of misc regfile writes
system.switch_cpus_1.numCycles                  21585                       # number of cpu cycles simulated
system.switch_cpus_1.numWorkItemsCompleted            0                       # number of work items this cpu completed
system.switch_cpus_1.numWorkItemsStarted            0                       # number of work items this cpu started
system.switch_cpus_1.rename.BlockCycles          8974                       # Number of cycles rename is blocking
system.switch_cpus_1.rename.CommittedMaps        15764                       # Number of HB maps that are committed
system.switch_cpus_1.rename.IQFullEvents          209                       # Number of times rename has blocked due to IQ full
system.switch_cpus_1.rename.IdleCycles           3253                       # Number of cycles rename is idle
system.switch_cpus_1.rename.ROBFullEvents           80                       # Number of times rename has blocked due to ROB full
system.switch_cpus_1.rename.RenameLookups       108017                       # Number of register rename lookups that rename has made
system.switch_cpus_1.rename.RenamedInsts        44115                       # Number of instructions processed by rename
system.switch_cpus_1.rename.RenamedOperands        49254                       # Number of destination operands rename has renamed
system.switch_cpus_1.rename.RunCycles            5716                       # Number of cycles rename is running
system.switch_cpus_1.rename.SQFullEvents         1160                       # Number of times rename has blocked due to SQ full
system.switch_cpus_1.rename.SquashCycles          727                       # Number of cycles rename is squashing
system.switch_cpus_1.rename.UnblockCycles         1500                       # Number of cycles rename is unblocking
system.switch_cpus_1.rename.UndoneMaps          33479                       # Number of HB maps that are undone due to squashing
system.switch_cpus_1.rename.fp_rename_lookups         5431                       # Number of floating rename lookups
system.switch_cpus_1.rename.int_rename_lookups        61872                       # Number of integer rename lookups
system.switch_cpus_1.rename.serializeStallCycles          728                       # count of cycles rename stalled for serializing inst
system.switch_cpus_1.rename.serializingInsts           27                       # count of serializing insts renamed
system.switch_cpus_1.rename.skidInsts            1977                       # count of insts added to the skid buffer
system.switch_cpus_1.rename.tempSerializingInsts           27                       # count of temporary serializing insts renamed
system.switch_cpus_1.rob.rob_reads              52274                       # The number of ROB reads
system.switch_cpus_1.rob.rob_writes             74686                       # The number of ROB writes
system.switch_cpus_1.timesIdled                     9                       # Number of times that the entire CPU went into an idle state and unscheduled itself
system.tol2bus.snoop_filter.hit_multi_requests            0                       # Number of requests hitting in the snoop filter with multiple (>1) holders of the requested data.
system.tol2bus.snoop_filter.hit_multi_snoops            0                       # Number of snoops hitting in the snoop filter with multiple (>1) holders of the requested data.
system.tol2bus.snoop_filter.hit_single_requests           81                       # Number of requests hitting in the snoop filter with a single holder of the requested data.
system.tol2bus.snoop_filter.hit_single_snoops            1                       # Number of snoops hitting in the snoop filter with a single holder of the requested data.
system.tol2bus.snoop_filter.tot_requests          931                       # Total number of requests made to the snoop filter.
system.tol2bus.snoop_filter.tot_snoops              1                       # Total number of snoops made to the snoop filter.
system.tol3bus.snoop_filter.hit_multi_requests            0                       # Number of requests hitting in the snoop filter with multiple (>1) holders of the requested data.
system.tol3bus.snoop_filter.hit_multi_snoops            0                       # Number of snoops hitting in the snoop filter with multiple (>1) holders of the requested data.
system.tol3bus.snoop_filter.hit_single_requests            0                       # Number of requests hitting in the snoop filter with a single holder of the requested data.
system.tol3bus.snoop_filter.hit_single_snoops            0                       # Number of snoops hitting in the snoop filter with a single holder of the requested data.
system.tol3bus.snoop_filter.tot_requests          848                       # Total number of requests made to the snoop filter.
system.tol3bus.snoop_filter.tot_snoops              0                       # Total number of snoops made to the snoop filter.
system.membus.trans_dist::ReadResp                655                       # Transaction distribution
system.membus.trans_dist::ReadExReq               192                       # Transaction distribution
system.membus.trans_dist::ReadExResp              192                       # Transaction distribution
system.membus.trans_dist::ReadSharedReq           655                       # Transaction distribution
system.membus.pkt_count_system.l3.mem_side::system.mem_ctrls.port         1694                       # Packet count per connected master and slave (bytes)
system.membus.pkt_count_system.l3.mem_side::total         1694                       # Packet count per connected master and slave (bytes)
system.membus.pkt_count::total                   1694                       # Packet count per connected master and slave (bytes)
system.membus.pkt_size_system.l3.mem_side::system.mem_ctrls.port        54208                       # Cumulative packet size per connected master and slave (bytes)
system.membus.pkt_size_system.l3.mem_side::total        54208                       # Cumulative packet size per connected master and slave (bytes)
system.membus.pkt_size::total                   54208                       # Cumulative packet size per connected master and slave (bytes)
system.membus.snoops                                0                       # Total snoops (count)
system.membus.snoopTraffic                          0                       # Total snoop traffic (bytes)
system.membus.snoop_fanout::samples               847                       # Request fanout histogram
system.membus.snoop_fanout::mean                    0                       # Request fanout histogram
system.membus.snoop_fanout::stdev                   0                       # Request fanout histogram
system.membus.snoop_fanout::underflows              0      0.00%      0.00% # Request fanout histogram
system.membus.snoop_fanout::0                     847    100.00%    100.00% # Request fanout histogram
system.membus.snoop_fanout::1                       0      0.00%    100.00% # Request fanout histogram
system.membus.snoop_fanout::overflows               0      0.00%    100.00% # Request fanout histogram
system.membus.snoop_fanout::min_value               0                       # Request fanout histogram
system.membus.snoop_fanout::max_value               0                       # Request fanout histogram
system.membus.snoop_fanout::total                 847                       # Request fanout histogram
system.membus.reqLayer2.occupancy             1060000                       # Layer occupancy (ticks)
system.membus.reqLayer2.utilization               1.2                       # Layer utilization (%)
system.membus.respLayer1.occupancy            4496750                       # Layer occupancy (ticks)
system.membus.respLayer1.utilization              5.1                       # Layer utilization (%)
system.membus.power_state.pwrStateResidencyTicks::UNDEFINED     88929000                       # Cumulative time (in ticks) in various power states
system.switch_cpus_1.dtb.walker.power_state.pwrStateResidencyTicks::UNDEFINED     88929000                       # Cumulative time (in ticks) in various power states
system.switch_cpus_1.itb.walker.power_state.pwrStateResidencyTicks::UNDEFINED     88929000                       # Cumulative time (in ticks) in various power states
system.switch_cpus_1.power_state.pwrStateResidencyTicks::OFF     88929000                       # Cumulative time (in ticks) in various power states
system.switch_cpus.dtb.walker.power_state.pwrStateResidencyTicks::UNDEFINED     88929000                       # Cumulative time (in ticks) in various power states
system.switch_cpus.itb.walker.power_state.pwrStateResidencyTicks::UNDEFINED     88929000                       # Cumulative time (in ticks) in various power states
system.switch_cpus.power_state.numTransitions            1                       # Number of power state transitions
system.switch_cpus.power_state.pwrStateResidencyTicks::OFF     88929000                       # Cumulative time (in ticks) in various power states
system.tol2bus.trans_dist::ReadResp               658                       # Transaction distribution
system.tol2bus.trans_dist::WritebackDirty           15                       # Transaction distribution
system.tol2bus.trans_dist::WritebackClean           30                       # Transaction distribution
system.tol2bus.trans_dist::CleanEvict              36                       # Transaction distribution
system.tol2bus.trans_dist::ReadExReq              192                       # Transaction distribution
system.tol2bus.trans_dist::ReadExResp             191                       # Transaction distribution
system.tol2bus.trans_dist::ReadCleanReq           421                       # Transaction distribution
system.tol2bus.trans_dist::ReadSharedReq          238                       # Transaction distribution
system.tol2bus.pkt_count_system.cpu.icache.mem_side::system.l2.cpu_side          872                       # Packet count per connected master and slave (bytes)
system.tol2bus.pkt_count_system.cpu.dcache.mem_side::system.l2.cpu_side          908                       # Packet count per connected master and slave (bytes)
system.tol2bus.pkt_count::total                  1780                       # Packet count per connected master and slave (bytes)
system.tol2bus.pkt_size_system.cpu.icache.mem_side::system.l2.cpu_side        28864                       # Cumulative packet size per connected master and slave (bytes)
system.tol2bus.pkt_size_system.cpu.dcache.mem_side::system.l2.cpu_side        28352                       # Cumulative packet size per connected master and slave (bytes)
system.tol2bus.pkt_size::total                  57216                       # Cumulative packet size per connected master and slave (bytes)
system.tol2bus.snoops                               1                       # Total snoops (count)
system.tol2bus.snoopTraffic                         0                       # Total snoop traffic (bytes)
system.tol2bus.snoop_fanout::samples              852                       # Request fanout histogram
system.tol2bus.snoop_fanout::mean            0.002347                       # Request fanout histogram
system.tol2bus.snoop_fanout::stdev           0.048422                       # Request fanout histogram
system.tol2bus.snoop_fanout::underflows             0      0.00%      0.00% # Request fanout histogram
system.tol2bus.snoop_fanout::0                    850     99.77%     99.77% # Request fanout histogram
system.tol2bus.snoop_fanout::1                      2      0.23%    100.00% # Request fanout histogram
system.tol2bus.snoop_fanout::2                      0      0.00%    100.00% # Request fanout histogram
system.tol2bus.snoop_fanout::3                      0      0.00%    100.00% # Request fanout histogram
system.tol2bus.snoop_fanout::4                      0      0.00%    100.00% # Request fanout histogram
system.tol2bus.snoop_fanout::overflows              0      0.00%    100.00% # Request fanout histogram
system.tol2bus.snoop_fanout::min_value              0                       # Request fanout histogram
system.tol2bus.snoop_fanout::max_value              1                       # Request fanout histogram
system.tol2bus.snoop_fanout::total                852                       # Request fanout histogram
system.tol2bus.reqLayer0.occupancy             510000                       # Layer occupancy (ticks)
system.tol2bus.reqLayer0.utilization              0.6                       # Layer utilization (%)
system.tol2bus.respLayer1.occupancy            642000                       # Layer occupancy (ticks)
system.tol2bus.respLayer1.utilization             0.7                       # Layer utilization (%)
system.tol2bus.respLayer0.occupancy            630000                       # Layer occupancy (ticks)
system.tol2bus.respLayer0.utilization             0.7                       # Layer utilization (%)
system.tol2bus.power_state.pwrStateResidencyTicks::UNDEFINED     88929000                       # Cumulative time (in ticks) in various power states
system.voltage_domain.voltage                       1                       # Voltage in Volts
system.clk_domain.clock                          1000                       # Clock period in ticks
system.l2.demand_hits::.switch_cpus_1.data            3                       # number of demand (read+write) hits
system.l2.demand_hits::total                        3                       # number of demand (read+write) hits
system.l2.overall_hits::.switch_cpus_1.data            3                       # number of overall hits
system.l2.overall_hits::total                       3                       # number of overall hits
system.l2.demand_misses::.cpu.inst                  1                       # number of demand (read+write) misses
system.l2.demand_misses::.switch_cpus.inst          358                       # number of demand (read+write) misses
system.l2.demand_misses::.switch_cpus.data          339                       # number of demand (read+write) misses
system.l2.demand_misses::.switch_cpus_1.inst           62                       # number of demand (read+write) misses
system.l2.demand_misses::.switch_cpus_1.data           88                       # number of demand (read+write) misses
system.l2.demand_misses::total                    848                       # number of demand (read+write) misses
system.l2.overall_misses::.cpu.inst                 1                       # number of overall misses
system.l2.overall_misses::.switch_cpus.inst          358                       # number of overall misses
system.l2.overall_misses::.switch_cpus.data          339                       # number of overall misses
system.l2.overall_misses::.switch_cpus_1.inst           62                       # number of overall misses
system.l2.overall_misses::.switch_cpus_1.data           88                       # number of overall misses
system.l2.overall_misses::total                   848                       # number of overall misses
system.l2.demand_miss_latency::.switch_cpus.inst     30666000                       # number of demand (read+write) miss cycles
system.l2.demand_miss_latency::.switch_cpus.data     29809000                       # number of demand (read+write) miss cycles
system.l2.demand_miss_latency::.switch_cpus_1.inst      5422000                       # number of demand (read+write) miss cycles
system.l2.demand_miss_latency::.switch_cpus_1.data      7819500                       # number of demand (read+write) miss cycles
system.l2.demand_miss_latency::total         73716500                       # number of demand (read+write) miss cycles
system.l2.overall_miss_latency::.switch_cpus.inst     30666000                       # number of overall miss cycles
system.l2.overall_miss_latency::.switch_cpus.data     29809000                       # number of overall miss cycles
system.l2.overall_miss_latency::.switch_cpus_1.inst      5422000                       # number of overall miss cycles
system.l2.overall_miss_latency::.switch_cpus_1.data      7819500                       # number of overall miss cycles
system.l2.overall_miss_latency::total        73716500                       # number of overall miss cycles
system.l2.demand_accesses::.cpu.inst                1                       # number of demand (read+write) accesses
[...]
system.cpu.dcache.demand_hits::.switch_cpus.data         4055                       # number of demand (read+write) hits
system.cpu.dcache.demand_hits::.switch_cpus_1.data         3436                       # number of demand (read+write) hits
system.cpu.dcache.demand_hits::total             7491                       # number of demand (read+write) hits
system.cpu.dcache.overall_hits::.switch_cpus.data         4055                       # number of overall hits
system.cpu.dcache.overall_hits::.switch_cpus_1.data         3436                       # number of overall hits
system.cpu.dcache.overall_hits::total            7491                       # number of overall hits
system.cpu.dcache.demand_misses::.switch_cpus.data          339                       # number of demand (read+write) misses
system.cpu.dcache.demand_misses::.switch_cpus_1.data          192                       # number of demand (read+write) misses
system.cpu.dcache.demand_misses::total            531                       # number of demand (read+write) misses
system.cpu.dcache.overall_misses::.switch_cpus.data          339                       # number of overall misses
system.cpu.dcache.overall_misses::.switch_cpus_1.data          192                       # number of overall misses
system.cpu.dcache.overall_misses::total           531                       # number of overall misses
system.cpu.dcache.demand_miss_latency::.switch_cpus.data     30318000                       # number of demand (read+write) miss cycles
system.cpu.dcache.demand_miss_latency::.switch_cpus_1.data     16414500                       # number of demand (read+write) miss cycles
system.cpu.dcache.demand_miss_latency::total     46732500                       # number of demand (read+write) miss cycles
system.cpu.dcache.overall_miss_latency::.switch_cpus.data     30318000                       # number of overall miss cycles
system.cpu.dcache.overall_miss_latency::.switch_cpus_1.data     16414500                       # number of overall miss cycles
system.cpu.dcache.overall_miss_latency::total     46732500                       # number of overall miss cycles
system.cpu.dcache.demand_accesses::.switch_cpus.data         4394                       # number of demand (read+write) accesses
system.cpu.dcache.demand_accesses::.switch_cpus_1.data         3628                       # number of demand (read+write) accesses
system.cpu.dcache.demand_accesses::total         8022                       # number of demand (read+write) accesses
system.cpu.dcache.overall_accesses::.switch_cpus.data         4394                       # number of overall (read+write) accesses
system.cpu.dcache.overall_accesses::.switch_cpus_1.data         3628                       # number of overall (read+write) accesses
system.cpu.dcache.overall_accesses::total         8022                       # number of overall (read+write) accesses
system.cpu.dcache.demand_miss_rate::.switch_cpus.data     0.077151                       # miss rate for demand accesses
system.cpu.dcache.demand_miss_rate::.switch_cpus_1.data     0.052922                       # miss rate for demand accesses
system.cpu.dcache.demand_miss_rate::total     0.066193                       # miss rate for demand accesses
system.cpu.dcache.overall_miss_rate::.switch_cpus.data     0.077151                       # miss rate for overall accesses
system.cpu.dcache.overall_miss_rate::.switch_cpus_1.data     0.052922                       # miss rate for overall accesses
system.cpu.dcache.overall_miss_rate::total     0.066193                       # miss rate for overall accesses
system.cpu.dcache.demand_avg_miss_latency::.switch_cpus.data 89433.628319                       # average overall miss latency
system.cpu.dcache.demand_avg_miss_latency::.switch_cpus_1.data 85492.187500                       # average overall miss latency
system.cpu.dcache.demand_avg_miss_latency::total 88008.474576                       # average overall miss latency
system.cpu.dcache.overall_avg_miss_latency::.switch_cpus.data 89433.628319                       # average overall miss latency
system.cpu.dcache.overall_avg_miss_latency::.switch_cpus_1.data 85492.187500                       # average overall miss latency
system.cpu.dcache.overall_avg_miss_latency::total 88008.474576                       # average overall miss latency
system.cpu.dcache.blocked_cycles::no_mshrs          146                       # number of cycles access was blocked
system.cpu.dcache.blocked_cycles::no_targets            0                       # number of cycles access was blocked
system.cpu.dcache.blocked::no_mshrs                 2                       # number of cycles access was blocked
system.cpu.dcache.blocked::no_targets               0                       # number of cycles access was blocked
system.cpu.dcache.avg_blocked_cycles::no_mshrs           73                       # average number of cycles each access was blocked
system.cpu.dcache.avg_blocked_cycles::no_targets          nan                       # average number of cycles each access was blocked
system.cpu.dcache.writebacks::.writebacks           15                       # number of writebacks
system.cpu.dcache.writebacks::total                15                       # number of writebacks
system.cpu.dcache.demand_mshr_hits::.switch_cpus_1.data          101                       # number of demand (read+write) MSHR hits
system.cpu.dcache.demand_mshr_hits::total          101                       # number of demand (read+write) MSHR hits
system.cpu.dcache.overall_mshr_hits::.switch_cpus_1.data          101                       # number of overall MSHR hits
system.cpu.dcache.overall_mshr_hits::total          101                       # number of overall MSHR hits
system.cpu.dcache.demand_mshr_misses::.switch_cpus.data          339                       # number of demand (read+write) MSHR misses
system.cpu.dcache.demand_mshr_misses::.switch_cpus_1.data           91                       # number of demand (read+write) MSHR misses
system.cpu.dcache.demand_mshr_misses::total          430                       # number of demand (read+write) MSHR misses
system.cpu.dcache.overall_mshr_misses::.switch_cpus.data          339                       # number of overall MSHR misses
system.cpu.dcache.overall_mshr_misses::.switch_cpus_1.data           91                       # number of overall MSHR misses
system.cpu.dcache.overall_mshr_misses::total          430                       # number of overall MSHR misses
system.cpu.dcache.demand_mshr_miss_latency::.switch_cpus.data     30148500                       # number of demand (read+write) MSHR miss cycles
system.cpu.dcache.demand_mshr_miss_latency::.switch_cpus_1.data      7926000                       # number of demand (read+write) MSHR miss cycles
system.cpu.dcache.demand_mshr_miss_latency::total     38074500                       # number of demand (read+write) MSHR miss cycles
system.cpu.dcache.overall_mshr_miss_latency::.switch_cpus.data     30148500                       # number of overall MSHR miss cycles
system.cpu.dcache.overall_mshr_miss_latency::.switch_cpus_1.data      7926000                       # number of overall MSHR miss cycles
system.cpu.dcache.overall_mshr_miss_latency::total     38074500                       # number of overall MSHR miss cycles
system.cpu.dcache.demand_mshr_miss_rate::.switch_cpus.data     0.077151                       # mshr miss rate for demand accesses
system.cpu.dcache.demand_mshr_miss_rate::.switch_cpus_1.data     0.025083                       # mshr miss rate for demand accesses
system.cpu.dcache.demand_mshr_miss_rate::total     0.053603                       # mshr miss rate for demand accesses
system.cpu.dcache.overall_mshr_miss_rate::.switch_cpus.data     0.077151                       # mshr miss rate for overall accesses
system.cpu.dcache.overall_mshr_miss_rate::.switch_cpus_1.data     0.025083                       # mshr miss rate for overall accesses
system.cpu.dcache.overall_mshr_miss_rate::total     0.053603                       # mshr miss rate for overall accesses
system.cpu.dcache.demand_avg_mshr_miss_latency::.switch_cpus.data 88933.628319                       # average overall mshr miss latency
system.cpu.dcache.demand_avg_mshr_miss_latency::.switch_cpus_1.data 87098.901099                       # average overall mshr miss latency
system.cpu.dcache.demand_avg_mshr_miss_latency::total 88545.348837                       # average overall mshr miss latency
system.cpu.dcache.overall_avg_mshr_miss_latency::.switch_cpus.data 88933.628319                       # average overall mshr miss latency
system.cpu.dcache.overall_avg_mshr_miss_latency::.switch_cpus_1.data 87098.901099                       # average overall mshr miss latency
system.cpu.dcache.overall_avg_mshr_miss_latency::total 88545.348837                       # average overall mshr miss latency
system.cpu.dcache.replacements                     50                       # number of replacements
system.cpu.dcache.ReadReq_hits::.switch_cpus.data         2716                       # number of ReadReq hits
system.cpu.dcache.ReadReq_hits::.switch_cpus_1.data         2788                       # number of ReadReq hits
system.cpu.dcache.ReadReq_hits::total            5504                       # number of ReadReq hits
system.cpu.dcache.ReadReq_misses::.switch_cpus.data          184                       # number of ReadReq misses
system.cpu.dcache.ReadReq_misses::.switch_cpus_1.data          155                       # number of ReadReq misses
system.cpu.dcache.ReadReq_misses::total           339                       # number of ReadReq misses
system.cpu.dcache.ReadReq_miss_latency::.switch_cpus.data     16439000                       # number of ReadReq miss cycles
system.cpu.dcache.ReadReq_miss_latency::.switch_cpus_1.data     13333000                       # number of ReadReq miss cycles
system.cpu.dcache.ReadReq_miss_latency::total     29772000                       # number of ReadReq miss cycles
system.cpu.dcache.ReadReq_accesses::.switch_cpus.data         2900                       # number of ReadReq accesses(hits+misses)
system.cpu.dcache.ReadReq_accesses::.switch_cpus_1.data         2943                       # number of ReadReq accesses(hits+misses)
system.cpu.dcache.ReadReq_accesses::total         5843                       # number of ReadReq accesses(hits+misses)
system.cpu.dcache.ReadReq_miss_rate::.switch_cpus.data     0.063448                       # miss rate for ReadReq accesses
system.cpu.dcache.ReadReq_miss_rate::.switch_cpus_1.data     0.052667                       # miss rate for ReadReq accesses
system.cpu.dcache.ReadReq_miss_rate::total     0.058018                       # miss rate for ReadReq accesses
system.cpu.dcache.ReadReq_avg_miss_latency::.switch_cpus.data 89342.391304                       # average ReadReq miss latency
system.cpu.dcache.ReadReq_avg_miss_latency::.switch_cpus_1.data 86019.354839                       # average ReadReq miss latency
system.cpu.dcache.ReadReq_avg_miss_latency::total 87823.008850                       # average ReadReq miss latency
system.cpu.dcache.ReadReq_mshr_hits::.switch_cpus_1.data          101                       # number of ReadReq MSHR hits
system.cpu.dcache.ReadReq_mshr_hits::total          101                       # number of ReadReq MSHR hits
system.cpu.dcache.ReadReq_mshr_misses::.switch_cpus.data          184                       # number of ReadReq MSHR misses
system.cpu.dcache.ReadReq_mshr_misses::.switch_cpus_1.data           54                       # number of ReadReq MSHR misses
system.cpu.dcache.ReadReq_mshr_misses::total          238                       # number of ReadReq MSHR misses
system.cpu.dcache.ReadReq_mshr_miss_latency::.switch_cpus.data     16347000                       # number of ReadReq MSHR miss cycles
system.cpu.dcache.ReadReq_mshr_miss_latency::.switch_cpus_1.data      4862500                       # number of ReadReq MSHR miss cycles
system.cpu.dcache.ReadReq_mshr_miss_latency::total     21209500                       # number of ReadReq MSHR miss cycles
system.cpu.dcache.ReadReq_mshr_miss_rate::.switch_cpus.data     0.063448                       # mshr miss rate for ReadReq accesses
system.cpu.dcache.ReadReq_mshr_miss_rate::.switch_cpus_1.data     0.018349                       # mshr miss rate for ReadReq accesses
system.cpu.dcache.ReadReq_mshr_miss_rate::total     0.040733                       # mshr miss rate for ReadReq accesses
system.cpu.dcache.ReadReq_avg_mshr_miss_latency::.switch_cpus.data 88842.391304                       # average ReadReq mshr miss latency
system.cpu.dcache.ReadReq_avg_mshr_miss_latency::.switch_cpus_1.data 90046.296296                       # average ReadReq mshr miss latency
system.cpu.dcache.ReadReq_avg_mshr_miss_latency::total 89115.546218                       # average ReadReq mshr miss latency
system.cpu.dcache.WriteReq_hits::.switch_cpus.data         1339                       # number of WriteReq hits
system.cpu.dcache.WriteReq_hits::.switch_cpus_1.data          648                       # number of WriteReq hits
system.cpu.dcache.WriteReq_hits::total           1987                       # number of WriteReq hits
system.cpu.dcache.WriteReq_misses::.switch_cpus.data          155                       # number of WriteReq misses
system.cpu.dcache.WriteReq_misses::.switch_cpus_1.data           37                       # number of WriteReq misses
system.cpu.dcache.WriteReq_misses::total          192                       # number of WriteReq misses
system.cpu.dcache.WriteReq_miss_latency::.switch_cpus.data     13879000                       # number of WriteReq miss cycles
system.cpu.dcache.WriteReq_miss_latency::.switch_cpus_1.data      3081500                       # number of WriteReq miss cycles
system.cpu.dcache.WriteReq_miss_latency::total     16960500                       # number of WriteReq miss cycles
system.cpu.dcache.WriteReq_accesses::.switch_cpus.data         1494                       # number of WriteReq accesses(hits+misses)
system.cpu.dcache.WriteReq_accesses::.switch_cpus_1.data          685                       # number of WriteReq accesses(hits+misses)
system.cpu.dcache.WriteReq_accesses::total         2179                       # number of WriteReq accesses(hits+misses)
system.cpu.dcache.WriteReq_miss_rate::.switch_cpus.data     0.103748                       # miss rate for WriteReq accesses
system.cpu.dcache.WriteReq_miss_rate::.switch_cpus_1.data     0.054015                       # miss rate for WriteReq accesses
system.cpu.dcache.WriteReq_miss_rate::total     0.088114                       # miss rate for WriteReq accesses
system.cpu.dcache.WriteReq_avg_miss_latency::.switch_cpus.data 89541.935484                       # average WriteReq miss latency
system.cpu.dcache.WriteReq_avg_miss_latency::.switch_cpus_1.data 83283.783784                       # average WriteReq miss latency
system.cpu.dcache.WriteReq_avg_miss_latency::total 88335.937500                       # average WriteReq miss latency
system.cpu.dcache.WriteReq_mshr_misses::.switch_cpus.data          155                       # number of WriteReq MSHR misses
system.cpu.dcache.WriteReq_mshr_misses::.switch_cpus_1.data           37                       # number of WriteReq MSHR misses
system.cpu.dcache.WriteReq_mshr_misses::total          192                       # number of WriteReq MSHR misses
system.cpu.dcache.WriteReq_mshr_miss_latency::.switch_cpus.data     13801500                       # number of WriteReq MSHR miss cycles
system.cpu.dcache.WriteReq_mshr_miss_latency::.switch_cpus_1.data      3063500                       # number of WriteReq MSHR miss cycles
system.cpu.dcache.WriteReq_mshr_miss_latency::total     16865000                       # number of WriteReq MSHR miss cycles
system.cpu.dcache.WriteReq_mshr_miss_rate::.switch_cpus.data     0.103748                       # mshr miss rate for WriteReq accesses
system.cpu.dcache.WriteReq_mshr_miss_rate::.switch_cpus_1.data     0.054015                       # mshr miss rate for WriteReq accesses
system.cpu.dcache.WriteReq_mshr_miss_rate::total     0.088114                       # mshr miss rate for WriteReq accesses
system.cpu.dcache.WriteReq_avg_mshr_miss_latency::.switch_cpus.data 89041.935484                       # average WriteReq mshr miss latency
system.cpu.dcache.WriteReq_avg_mshr_miss_latency::.switch_cpus_1.data 82797.297297                       # average WriteReq mshr miss latency
system.cpu.dcache.WriteReq_avg_mshr_miss_latency::total 87838.541667                       # average WriteReq mshr miss latency
system.cpu.dcache.power_state.pwrStateResidencyTicks::UNDEFINED     88929000                       # Cumulative time (in ticks) in various power states
system.cpu.dcache.tags.tagsinuse           207.526309                       # Cycle average of tags in use
system.cpu.dcache.tags.total_refs                7919                       # Total number of references to valid blocks.
system.cpu.dcache.tags.sampled_refs               428                       # Sample count of references to valid blocks.
system.cpu.dcache.tags.avg_refs             18.502336                       # Average number of references to valid blocks.
system.cpu.dcache.tags.warmup_cycle            153000                       # Cycle when the warmup percentage was hit.
system.cpu.dcache.tags.occ_blocks::.switch_cpus.data   202.114913                       # Average occupied blocks per requestor
system.cpu.dcache.tags.occ_blocks::.switch_cpus_1.data     5.411397                       # Average occupied blocks per requestor
system.cpu.dcache.tags.occ_percent::.switch_cpus.data     0.394756                       # Average percentage of cache occupancy
system.cpu.dcache.tags.occ_percent::.switch_cpus_1.data     0.010569                       # Average percentage of cache occupancy
system.cpu.dcache.tags.occ_percent::total     0.405325                       # Average percentage of cache occupancy
system.cpu.dcache.tags.occ_task_id_blocks::1024          378                       # Occupied blocks per task id
system.cpu.dcache.tags.age_task_id_blocks_1024::0           87                       # Occupied blocks per task id
system.cpu.dcache.tags.age_task_id_blocks_1024::1          291                       # Occupied blocks per task id
system.cpu.dcache.tags.occ_task_id_percent::1024     0.738281                       # Percentage of cache occupancy per task id
system.cpu.dcache.tags.tag_accesses             32516                       # Number of tag accesses
system.cpu.dcache.tags.data_accesses            32516                       # Number of data accesses
system.cpu.dcache.tags.cache_friendly               0                       # Number of cache friendly accesses
system.cpu.dcache.tags.cache_averse              7919                       # Number of cache averse accesses
system.cpu.dcache.tags.cache_friendly_victims            0                       # Number of cache friendly victims
system.cpu.dcache.tags.cache_averse_victims          428                       # Number of cache averse victims
system.cpu.dcache.tags.OPT_hits                     0                       # Number of OPT hits
system.cpu.dcache.tags.OPT_misses                   0                       # Number of OPT misses
system.cpu.dcache.tags.OPT_nan                   8022                       # Number of OPT nan
system.cpu.dcache.tags.power_state.pwrStateResidencyTicks::UNDEFINED     88929000                       # Cumulative time (in ticks) in various power states
system.cpu.power_state.numTransitions               2                       # Number of power state transitions
system.cpu.power_state.pwrStateResidencyTicks::OFF     88929000                       # Cumulative time (in ticks) in various power states

---------- End Simulation Statistics   ----------
