
---------- Begin Simulation Statistics ----------
final_tick                               1528383173500                       # Number of ticks from beginning of simulation (restored from checkpoints and never reset)
host_inst_rate                                 504443                       # Simulator instruction rate (inst/s)
host_mem_usage                                 803156                       # Number of bytes of host memory used
host_op_rate                                   953338                       # Simulator op (including micro ops) rate (op/s)
host_seconds                                  4163.00                       # Real time elapsed on the host
host_tick_rate                               72450953                       # Simulator tick rate (ticks/s)
sim_freq                                 1000000000000                       # Frequency of simulated ticks
sim_insts                                  2100000002                       # Number of instructions simulated
sim_ops                                    3968750663                       # Number of ops (including micro ops) simulated
sim_seconds                                  0.301614                       # Number of seconds simulated
sim_ticks                                301613680500                       # Number of ticks simulated
system.cpu.committedInsts                           0                       # Number of instructions committed
system.cpu.committedOps                             0                       # Number of ops (including micro ops) committed
system.cpu.dtb.rdAccesses                           0                       # TLB accesses on read requests
system.cpu.dtb.rdMisses                             0                       # TLB misses on read requests
system.cpu.dtb.wrAccesses                           0                       # TLB accesses on write requests
system.cpu.dtb.wrMisses                             0                       # TLB misses on write requests
system.cpu.idle_fraction                            0                       # Percentage of idle cycles
system.cpu.itb.rdAccesses                           0                       # TLB accesses on read requests
system.cpu.itb.rdMisses                             0                       # TLB misses on read requests
system.cpu.itb.wrAccesses                           0                       # TLB accesses on write requests
system.cpu.itb.wrMisses                             0                       # TLB misses on write requests
system.cpu.not_idle_fraction                        1                       # Percentage of non-idle cycles
system.cpu.numCycles                                0                       # number of cpu cycles simulated
system.cpu.numWorkItemsCompleted                    0                       # number of work items this cpu completed
system.cpu.numWorkItemsStarted                      0                       # number of work items this cpu started
system.cpu.num_busy_cycles                          0                       # Number of busy cycles
system.cpu.num_conditional_control_insts            0                       # number of instructions that are conditional controls
system.cpu.num_fp_alu_accesses                      0                       # Number of float alu accesses
system.cpu.num_fp_insts                             0                       # number of float instructions
system.cpu.num_fp_register_reads                    0                       # number of times the floating registers were read
system.cpu.num_fp_register_writes                   0                       # number of times the floating registers were written
system.cpu.num_func_calls                           0                       # number of times a function call or return occured
system.cpu.num_idle_cycles                          0                       # Number of idle cycles
system.cpu.num_int_alu_accesses                     0                       # Number of integer alu accesses
system.cpu.num_int_insts                            0                       # number of integer instructions
system.cpu.num_int_register_reads                   0                       # number of times the integer registers were read
system.cpu.num_int_register_writes                  0                       # number of times the integer registers were written
system.cpu.num_load_insts                           0                       # Number of load instructions
system.cpu.num_mem_refs                             0                       # number of memory refs
system.cpu.num_store_insts                          0                       # Number of store instructions
system.cpu.num_vec_alu_accesses                     0                       # Number of vector alu accesses
system.cpu.num_vec_insts                            0                       # number of vector instructions
system.cpu.num_vec_register_reads                   0                       # number of times the vector registers were read
system.cpu.num_vec_register_writes                  0                       # number of times the vector registers were written
system.cpu.op_class::No_OpClass                     0                       # Class of executed instruction
system.cpu.op_class::IntAlu                         0                       # Class of executed instruction
system.cpu.op_class::IntMult                        0                       # Class of executed instruction
system.cpu.op_class::IntDiv                         0                       # Class of executed instruction
system.cpu.op_class::FloatAdd                       0                       # Class of executed instruction
system.cpu.op_class::FloatCmp                       0                       # Class of executed instruction
system.cpu.op_class::FloatCvt                       0                       # Class of executed instruction
system.cpu.op_class::FloatMult                      0                       # Class of executed instruction
system.cpu.op_class::FloatMultAcc                   0                       # Class of executed instruction
system.cpu.op_class::FloatDiv                       0                       # Class of executed instruction
system.cpu.op_class::FloatMisc                      0                       # Class of executed instruction
system.cpu.op_class::FloatSqrt                      0                       # Class of executed instruction
system.cpu.op_class::SimdAdd                        0                       # Class of executed instruction
system.cpu.op_class::SimdAddAcc                     0                       # Class of executed instruction
system.cpu.op_class::SimdAlu                        0                       # Class of executed instruction
system.cpu.op_class::SimdCmp                        0                       # Class of executed instruction
system.cpu.op_class::SimdCvt                        0                       # Class of executed instruction
system.cpu.op_class::SimdMisc                       0                       # Class of executed instruction
system.cpu.op_class::SimdMult                       0                       # Class of executed instruction
system.cpu.op_class::SimdMultAcc                    0                       # Class of executed instruction
system.cpu.op_class::SimdShift                      0                       # Class of executed instruction
system.cpu.op_class::SimdShiftAcc                   0                       # Class of executed instruction
system.cpu.op_class::SimdDiv                        0                       # Class of executed instruction
system.cpu.op_class::SimdSqrt                       0                       # Class of executed instruction
system.cpu.op_class::SimdFloatAdd                   0                       # Class of executed instruction
system.cpu.op_class::SimdFloatAlu                   0                       # Class of executed instruction
system.cpu.op_class::SimdFloatCmp                   0                       # Class of executed instruction
system.cpu.op_class::SimdFloatCvt                   0                       # Class of executed instruction
system.cpu.op_class::SimdFloatDiv                   0                       # Class of executed instruction
system.cpu.op_class::SimdFloatMisc                  0                       # Class of executed instruction
system.cpu.op_class::SimdFloatMult                  0                       # Class of executed instruction
system.cpu.op_class::SimdFloatMultAcc               0                       # Class of executed instruction
system.cpu.op_class::SimdFloatSqrt                  0                       # Class of executed instruction
system.cpu.op_class::SimdReduceAdd                  0                       # Class of executed instruction
system.cpu.op_class::SimdReduceAlu                  0                       # Class of executed instruction
system.cpu.op_class::SimdReduceCmp                  0                       # Class of executed instruction
system.cpu.op_class::SimdFloatReduceAdd             0                       # Class of executed instruction
system.cpu.op_class::SimdFloatReduceCmp             0                       # Class of executed instruction
system.cpu.op_class::SimdAes                        0                       # Class of executed instruction
system.cpu.op_class::SimdAesMix                     0                       # Class of executed instruction
system.cpu.op_class::SimdSha1Hash                   0                       # Class of executed instruction
system.cpu.op_class::SimdSha1Hash2                  0                       # Class of executed instruction
system.cpu.op_class::SimdSha256Hash                 0                       # Class of executed instruction
system.cpu.op_class::SimdSha256Hash2                0                       # Class of executed instruction
system.cpu.op_class::SimdShaSigma2                  0                       # Class of executed instruction
system.cpu.op_class::SimdShaSigma3                  0                       # Class of executed instruction
system.cpu.op_class::SimdPredAlu                    0                       # Class of executed instruction
system.cpu.op_class::MemRead                        0                       # Class of executed instruction
system.cpu.op_class::MemWrite                       0                       # Class of executed instruction
system.cpu.op_class::FloatMemRead                   0                       # Class of executed instruction
system.cpu.op_class::FloatMemWrite                  0                       # Class of executed instruction
system.cpu.op_class::IprAccess                      0                       # Class of executed instruction
system.cpu.op_class::InstPrefetch                   0                       # Class of executed instruction
system.cpu.op_class::total                          0                       # Class of executed instruction
system.cpu.workload.numSyscalls                   478                       # Number of system calls
system.membus.snoop_filter.hit_multi_requests            0                       # Number of requests hitting in the snoop filter with multiple (>1) holders of the requested data.
system.membus.snoop_filter.hit_multi_snoops            0                       # Number of snoops hitting in the snoop filter with multiple (>1) holders of the requested data.
system.membus.snoop_filter.hit_single_requests      1062909                       # Number of requests hitting in the snoop filter with a single holder of the requested data.
system.membus.snoop_filter.hit_single_snoops            0                       # Number of snoops hitting in the snoop filter with a single holder of the requested data.
system.membus.snoop_filter.tot_requests       2125725                       # Total number of requests made to the snoop filter.
system.membus.snoop_filter.tot_snoops               0                       # Total number of snoops made to the snoop filter.
system.switch_cpus.committedInsts                   0                       # Number of instructions committed
system.switch_cpus.committedOps                     0                       # Number of ops (including micro ops) committed
system.switch_cpus.dtb.rdAccesses                   0                       # TLB accesses on read requests
system.switch_cpus.dtb.rdMisses                     0                       # TLB misses on read requests
system.switch_cpus.dtb.wrAccesses                   0                       # TLB accesses on write requests
system.switch_cpus.dtb.wrMisses                     0                       # TLB misses on write requests
system.switch_cpus.idle_fraction                    0                       # Percentage of idle cycles
system.switch_cpus.itb.rdAccesses                   0                       # TLB accesses on read requests
system.switch_cpus.itb.rdMisses                     0                       # TLB misses on read requests
system.switch_cpus.itb.wrAccesses                   0                       # TLB accesses on write requests
system.switch_cpus.itb.wrMisses                     0                       # TLB misses on write requests
system.switch_cpus.not_idle_fraction                1                       # Percentage of non-idle cycles
system.switch_cpus.numCycles                        0                       # number of cpu cycles simulated
system.switch_cpus.numWorkItemsCompleted            0                       # number of work items this cpu completed
system.switch_cpus.numWorkItemsStarted              0                       # number of work items this cpu started
system.switch_cpus.num_busy_cycles                  0                       # Number of busy cycles
system.switch_cpus.num_conditional_control_insts            0                       # number of instructions that are conditional controls
system.switch_cpus.num_fp_alu_accesses              0                       # Number of float alu accesses
system.switch_cpus.num_fp_insts                     0                       # number of float instructions
system.switch_cpus.num_fp_register_reads            0                       # number of times the floating registers were read
system.switch_cpus.num_fp_register_writes            0                       # number of times the floating registers were written
system.switch_cpus.num_func_calls                   0                       # number of times a function call or return occured
system.switch_cpus.num_idle_cycles                  0                       # Number of idle cycles
system.switch_cpus.num_int_alu_accesses             0                       # Number of integer alu accesses
system.switch_cpus.num_int_insts                    0                       # number of integer instructions
system.switch_cpus.num_int_register_reads            0                       # number of times the integer registers were read
system.switch_cpus.num_int_register_writes            0                       # number of times the integer registers were written
system.switch_cpus.num_load_insts                   0                       # Number of load instructions
system.switch_cpus.num_mem_refs                     0                       # number of memory refs
system.switch_cpus.num_store_insts                  0                       # Number of store instructions
system.switch_cpus.num_vec_alu_accesses             0                       # Number of vector alu accesses
system.switch_cpus.num_vec_insts                    0                       # number of vector instructions
system.switch_cpus.num_vec_register_reads            0                       # number of times the vector registers were read
system.switch_cpus.num_vec_register_writes            0                       # number of times the vector registers were written
system.switch_cpus.op_class::No_OpClass             0                       # Class of executed instruction
system.switch_cpus.op_class::IntAlu                 0                       # Class of executed instruction
system.switch_cpus.op_class::IntMult                0                       # Class of executed instruction
system.switch_cpus.op_class::IntDiv                 0                       # Class of executed instruction
system.switch_cpus.op_class::FloatAdd               0                       # Class of executed instruction
system.switch_cpus.op_class::FloatCmp               0                       # Class of executed instruction
system.switch_cpus.op_class::FloatCvt               0                       # Class of executed instruction
system.switch_cpus.op_class::FloatMult              0                       # Class of executed instruction
system.switch_cpus.op_class::FloatMultAcc            0                       # Class of executed instruction
system.switch_cpus.op_class::FloatDiv               0                       # Class of executed instruction
system.switch_cpus.op_class::FloatMisc              0                       # Class of executed instruction
system.switch_cpus.op_class::FloatSqrt              0                       # Class of executed instruction
system.switch_cpus.op_class::SimdAdd                0                       # Class of executed instruction
system.switch_cpus.op_class::SimdAddAcc             0                       # Class of executed instruction
system.switch_cpus.op_class::SimdAlu                0                       # Class of executed instruction
system.switch_cpus.op_class::SimdCmp                0                       # Class of executed instruction
system.switch_cpus.op_class::SimdCvt                0                       # Class of executed instruction
system.switch_cpus.op_class::SimdMisc               0                       # Class of executed instruction
system.switch_cpus.op_class::SimdMult               0                       # Class of executed instruction
system.switch_cpus.op_class::SimdMultAcc            0                       # Class of executed instruction
system.switch_cpus.op_class::SimdShift              0                       # Class of executed instruction
system.switch_cpus.op_class::SimdShiftAcc            0                       # Class of executed instruction
system.switch_cpus.op_class::SimdDiv                0                       # Class of executed instruction
system.switch_cpus.op_class::SimdSqrt               0                       # Class of executed instruction
system.switch_cpus.op_class::SimdFloatAdd            0                       # Class of executed instruction
system.switch_cpus.op_class::SimdFloatAlu            0                       # Class of executed instruction
system.switch_cpus.op_class::SimdFloatCmp            0                       # Class of executed instruction
system.switch_cpus.op_class::SimdFloatCvt            0                       # Class of executed instruction
system.switch_cpus.op_class::SimdFloatDiv            0                       # Class of executed instruction
system.switch_cpus.op_class::SimdFloatMisc            0                       # Class of executed instruction
system.switch_cpus.op_class::SimdFloatMult            0                       # Class of executed instruction
system.switch_cpus.op_class::SimdFloatMultAcc            0                       # Class of executed instruction
system.switch_cpus.op_class::SimdFloatSqrt            0                       # Class of executed instruction
system.switch_cpus.op_class::SimdReduceAdd            0                       # Class of executed instruction
system.switch_cpus.op_class::SimdReduceAlu            0                       # Class of executed instruction
system.switch_cpus.op_class::SimdReduceCmp            0                       # Class of executed instruction
system.switch_cpus.op_class::SimdFloatReduceAdd            0                       # Class of executed instruction
system.switch_cpus.op_class::SimdFloatReduceCmp            0                       # Class of executed instruction
system.switch_cpus.op_class::SimdAes                0                       # Class of executed instruction
system.switch_cpus.op_class::SimdAesMix             0                       # Class of executed instruction
system.switch_cpus.op_class::SimdSha1Hash            0                       # Class of executed instruction
system.switch_cpus.op_class::SimdSha1Hash2            0                       # Class of executed instruction
system.switch_cpus.op_class::SimdSha256Hash            0                       # Class of executed instruction
system.switch_cpus.op_class::SimdSha256Hash2            0                       # Class of executed instruction
system.switch_cpus.op_class::SimdShaSigma2            0                       # Class of executed instruction
system.switch_cpus.op_class::SimdShaSigma3            0                       # Class of executed instruction
system.switch_cpus.op_class::SimdPredAlu            0                       # Class of executed instruction
system.switch_cpus.op_class::MemRead                0                       # Class of executed instruction
system.switch_cpus.op_class::MemWrite               0                       # Class of executed instruction
system.switch_cpus.op_class::FloatMemRead            0                       # Class of executed instruction
system.switch_cpus.op_class::FloatMemWrite            0                       # Class of executed instruction
system.switch_cpus.op_class::IprAccess              0                       # Class of executed instruction
system.switch_cpus.op_class::InstPrefetch            0                       # Class of executed instruction
system.switch_cpus.op_class::total                  0                       # Class of executed instruction
system.switch_cpus_1.branchPred.BTBCorrect            0                       # Number of correct BTB predictions (this stat may not work properly.
system.switch_cpus_1.branchPred.BTBHitPct          nan                       # BTB Hit Percentage
system.switch_cpus_1.branchPred.BTBHits             0                       # Number of BTB hits
system.switch_cpus_1.branchPred.BTBLookups            0                       # Number of BTB lookups
system.switch_cpus_1.branchPred.RASInCorrect           43                       # Number of incorrect RAS predictions.
system.switch_cpus_1.branchPred.condIncorrect      8434754                       # Number of conditional branches incorrect
system.switch_cpus_1.branchPred.condPredicted    201256212                       # Number of conditional branches predicted
system.switch_cpus_1.branchPred.indirectHits     87531115                       # Number of indirect target hits.
system.switch_cpus_1.branchPred.indirectLookups    108994082                       # Number of indirect predictor lookups.
system.switch_cpus_1.branchPred.indirectMisses     21462967                       # Number of indirect misses.
system.switch_cpus_1.branchPred.lookups     229382501                       # Number of BP lookups
system.switch_cpus_1.branchPred.usedRAS      13105232                       # Number of times the RAS was used to get a target.
system.switch_cpus_1.branchPredindirectMispredicted      5868741                       # Number of mispredicted indirect branches.
system.switch_cpus_1.cc_regfile_reads       931988965                       # number of cc regfile reads
system.switch_cpus_1.cc_regfile_writes      564587253                       # number of cc regfile writes
system.switch_cpus_1.commit.amos                    0                       # Number of atomic instructions committed
system.switch_cpus_1.commit.branchMispredicts      8439538                       # The number of times a branch was mispredicted
system.switch_cpus_1.commit.branches        171743663                       # Number of branches committed
system.switch_cpus_1.commit.bw_lim_events    153087786                       # number cycles where commit BW limit reached
system.switch_cpus_1.commit.commitNonSpecStalls         6242                       # The number of times commit has been forced to stall to communicate backwards
system.switch_cpus_1.commit.commitSquashedInsts    368041198                       # The number of squashed insts skipped by commit
system.switch_cpus_1.commit.committedInsts   1000000000                       # Number of instructions committed
system.switch_cpus_1.commit.committedOps   1872566046                       # Number of ops (including micro ops) committed
system.switch_cpus_1.commit.committed_per_cycle::samples    551379284                       # Number of insts commited each cycle
system.switch_cpus_1.commit.committed_per_cycle::mean     3.396149                       # Number of insts commited each cycle
system.switch_cpus_1.commit.committed_per_cycle::stdev     3.337372                       # Number of insts commited each cycle
system.switch_cpus_1.commit.committed_per_cycle::underflows            0      0.00%      0.00% # Number of insts commited each cycle
system.switch_cpus_1.commit.committed_per_cycle::0    185645056     33.67%     33.67% # Number of insts commited each cycle
system.switch_cpus_1.commit.committed_per_cycle::1     59492018     10.79%     44.46% # Number of insts commited each cycle
system.switch_cpus_1.commit.committed_per_cycle::2     37625474      6.82%     51.28% # Number of insts commited each cycle
system.switch_cpus_1.commit.committed_per_cycle::3     41617645      7.55%     58.83% # Number of insts commited each cycle
system.switch_cpus_1.commit.committed_per_cycle::4     20556208      3.73%     62.56% # Number of insts commited each cycle
system.switch_cpus_1.commit.committed_per_cycle::5     26043460      4.72%     67.28% # Number of insts commited each cycle
system.switch_cpus_1.commit.committed_per_cycle::6     15355734      2.78%     70.07% # Number of insts commited each cycle
system.switch_cpus_1.commit.committed_per_cycle::7     11955903      2.17%     72.24% # Number of insts commited each cycle
system.switch_cpus_1.commit.committed_per_cycle::8    153087786     27.76%    100.00% # Number of insts commited each cycle
system.switch_cpus_1.commit.committed_per_cycle::overflows            0      0.00%    100.00% # Number of insts commited each cycle
system.switch_cpus_1.commit.committed_per_cycle::min_value            0                       # Number of insts commited each cycle
system.switch_cpus_1.commit.committed_per_cycle::max_value            8                       # Number of insts commited each cycle
system.switch_cpus_1.commit.committed_per_cycle::total    551379284                       # Number of insts commited each cycle
system.switch_cpus_1.commit.fp_insts        353215384                       # Number of committed floating point instructions.
system.switch_cpus_1.commit.function_calls      9265651                       # Number of function calls committed.
system.switch_cpus_1.commit.int_insts      1600442758                       # Number of committed integer instructions.
system.switch_cpus_1.commit.loads           238523105                       # Number of loads committed
system.switch_cpus_1.commit.membars               108                       # Number of memory barriers committed
system.switch_cpus_1.commit.op_class_0::No_OpClass      4148588      0.22%      0.22% # Class of committed instruction
system.switch_cpus_1.commit.op_class_0::IntAlu   1289330592     68.85%     69.08% # Class of committed instruction
system.switch_cpus_1.commit.op_class_0::IntMult      1075496      0.06%     69.13% # Class of committed instruction
system.switch_cpus_1.commit.op_class_0::IntDiv      6341911      0.34%     69.47% # Class of committed instruction
system.switch_cpus_1.commit.op_class_0::FloatAdd     43161488      2.30%     71.78% # Class of committed instruction
system.switch_cpus_1.commit.op_class_0::FloatCmp            0      0.00%     71.78% # Class of committed instruction
system.switch_cpus_1.commit.op_class_0::FloatCvt          112      0.00%     71.78% # Class of committed instruction
system.switch_cpus_1.commit.op_class_0::FloatMult            0      0.00%     71.78% # Class of committed instruction
system.switch_cpus_1.commit.op_class_0::FloatMultAcc            0      0.00%     71.78% # Class of committed instruction
system.switch_cpus_1.commit.op_class_0::FloatDiv            0      0.00%     71.78% # Class of committed instruction
system.switch_cpus_1.commit.op_class_0::FloatMisc            0      0.00%     71.78% # Class of committed instruction
system.switch_cpus_1.commit.op_class_0::FloatSqrt            0      0.00%     71.78% # Class of committed instruction
system.switch_cpus_1.commit.op_class_0::SimdAdd           98      0.00%     71.78% # Class of committed instruction
system.switch_cpus_1.commit.op_class_0::SimdAddAcc            0      0.00%     71.78% # Class of committed instruction
system.switch_cpus_1.commit.op_class_0::SimdAlu     37520476      2.00%     73.78% # Class of committed instruction
system.switch_cpus_1.commit.op_class_0::SimdCmp       785328      0.04%     73.82% # Class of committed instruction
system.switch_cpus_1.commit.op_class_0::SimdCvt      4519604      0.24%     74.06% # Class of committed instruction
system.switch_cpus_1.commit.op_class_0::SimdMisc     20653471      1.10%     75.17% # Class of committed instruction
system.switch_cpus_1.commit.op_class_0::SimdMult            0      0.00%     75.17% # Class of committed instruction
system.switch_cpus_1.commit.op_class_0::SimdMultAcc            0      0.00%     75.17% # Class of committed instruction
system.switch_cpus_1.commit.op_class_0::SimdShift           49      0.00%     75.17% # Class of committed instruction
system.switch_cpus_1.commit.op_class_0::SimdShiftAcc            0      0.00%     75.17% # Class of committed instruction
system.switch_cpus_1.commit.op_class_0::SimdDiv            0      0.00%     75.17% # Class of committed instruction
system.switch_cpus_1.commit.op_class_0::SimdSqrt            0      0.00%     75.17% # Class of committed instruction
system.switch_cpus_1.commit.op_class_0::SimdFloatAdd     49302762      2.63%     77.80% # Class of committed instruction
system.switch_cpus_1.commit.op_class_0::SimdFloatAlu            0      0.00%     77.80% # Class of committed instruction
system.switch_cpus_1.commit.op_class_0::SimdFloatCmp            0      0.00%     77.80% # Class of committed instruction
system.switch_cpus_1.commit.op_class_0::SimdFloatCvt     35917538      1.92%     79.72% # Class of committed instruction
system.switch_cpus_1.commit.op_class_0::SimdFloatDiv      1922135      0.10%     79.82% # Class of committed instruction
system.switch_cpus_1.commit.op_class_0::SimdFloatMisc            0      0.00%     79.82% # Class of committed instruction
system.switch_cpus_1.commit.op_class_0::SimdFloatMult     22831089      1.22%     81.04% # Class of committed instruction
system.switch_cpus_1.commit.op_class_0::SimdFloatMultAcc            0      0.00%     81.04% # Class of committed instruction
system.switch_cpus_1.commit.op_class_0::SimdFloatSqrt            0      0.00%     81.04% # Class of committed instruction
system.switch_cpus_1.commit.op_class_0::SimdReduceAdd            0      0.00%     81.04% # Class of committed instruction
system.switch_cpus_1.commit.op_class_0::SimdReduceAlu            0      0.00%     81.04% # Class of committed instruction
system.switch_cpus_1.commit.op_class_0::SimdReduceCmp            0      0.00%     81.04% # Class of committed instruction
system.switch_cpus_1.commit.op_class_0::SimdFloatReduceAdd            0      0.00%     81.04% # Class of committed instruction
system.switch_cpus_1.commit.op_class_0::SimdFloatReduceCmp            0      0.00%     81.04% # Class of committed instruction
system.switch_cpus_1.commit.op_class_0::SimdAes            0      0.00%     81.04% # Class of committed instruction
system.switch_cpus_1.commit.op_class_0::SimdAesMix            0      0.00%     81.04% # Class of committed instruction
system.switch_cpus_1.commit.op_class_0::SimdSha1Hash            0      0.00%     81.04% # Class of committed instruction
system.switch_cpus_1.commit.op_class_0::SimdSha1Hash2            0      0.00%     81.04% # Class of committed instruction
system.switch_cpus_1.commit.op_class_0::SimdSha256Hash            0      0.00%     81.04% # Class of committed instruction
system.switch_cpus_1.commit.op_class_0::SimdSha256Hash2            0      0.00%     81.04% # Class of committed instruction
system.switch_cpus_1.commit.op_class_0::SimdShaSigma2            0      0.00%     81.04% # Class of committed instruction
system.switch_cpus_1.commit.op_class_0::SimdShaSigma3            0      0.00%     81.04% # Class of committed instruction
system.switch_cpus_1.commit.op_class_0::SimdPredAlu            0      0.00%     81.04% # Class of committed instruction
system.switch_cpus_1.commit.op_class_0::MemRead    180281745      9.63%     90.67% # Class of committed instruction
system.switch_cpus_1.commit.op_class_0::MemWrite    107339072      5.73%     96.40% # Class of committed instruction
system.switch_cpus_1.commit.op_class_0::FloatMemRead     58241360      3.11%     99.51% # Class of committed instruction
system.switch_cpus_1.commit.op_class_0::FloatMemWrite      9193132      0.49%    100.00% # Class of committed instruction
system.switch_cpus_1.commit.op_class_0::IprAccess            0      0.00%    100.00% # Class of committed instruction
system.switch_cpus_1.commit.op_class_0::InstPrefetch            0      0.00%    100.00% # Class of committed instruction
system.switch_cpus_1.commit.op_class_0::total   1872566046                       # Class of committed instruction
system.switch_cpus_1.commit.refs            355055309                       # Number of memory references committed
system.switch_cpus_1.commit.swp_count               0                       # Number of s/w prefetches committed
system.switch_cpus_1.commit.vec_insts               0                       # Number of committed Vector instructions.
system.switch_cpus_1.committedInsts        1000000000                       # Number of Instructions Simulated
system.switch_cpus_1.committedOps          1872566046                       # Number of Ops (including micro ops) Simulated
system.switch_cpus_1.cpi                     0.603227                       # CPI: Cycles Per Instruction
system.switch_cpus_1.cpi_total               0.603227                       # CPI: Total CPI of All Threads
system.switch_cpus_1.decode.BlockedCycles    200873457                       # Number of cycles decode is blocked
system.switch_cpus_1.decode.DecodedInsts   2393588576                       # Number of instructions handled by decode
system.switch_cpus_1.decode.IdleCycles       52673102                       # Number of cycles decode is idle
system.switch_cpus_1.decode.RunCycles       294574290                       # Number of cycles decode is running
system.switch_cpus_1.decode.SquashCycles      8544432                       # Number of cycles decode is squashing
system.switch_cpus_1.decode.UnblockCycles     46315428                       # Number of cycles decode is unblocking
system.switch_cpus_1.dtb.rdAccesses         266309571                       # TLB accesses on read requests
system.switch_cpus_1.dtb.rdMisses              608702                       # TLB misses on read requests
system.switch_cpus_1.dtb.wrAccesses         127618419                       # TLB accesses on write requests
system.switch_cpus_1.dtb.wrMisses              361677                       # TLB misses on write requests
system.switch_cpus_1.fetch.Branches         229382501                       # Number of branches that fetch encountered
system.switch_cpus_1.fetch.CacheLines       180558125                       # Number of cache lines fetched
system.switch_cpus_1.fetch.Cycles           576173659                       # Number of cycles fetch has run and was not squashing or blocked
system.switch_cpus_1.fetch.IcacheSquashes       319112                       # Number of outstanding Icache misses that were squashed
system.switch_cpus_1.fetch.IcacheWaitRetryStallCycles          657                       # Number of stall cycles due to full MSHR
system.switch_cpus_1.fetch.Insts           1344558319                       # Number of instructions fetch has processed
system.switch_cpus_1.fetch.MiscStallCycles        10159                       # Number of cycles fetch has spent waiting on interrupts, or bad addresses, or out of MSHRs
system.switch_cpus_1.fetch.PendingTrapStallCycles       259082                       # Number of stall cycles due to pending traps
system.switch_cpus_1.fetch.SquashCycles      17088864                       # Number of cycles fetch has spent squashing
system.switch_cpus_1.fetch.TlbCycles                2                       # Number of cycles fetch has spent waiting for tlb
system.switch_cpus_1.fetch.branchRate        0.380259                       # Number of branch fetches per cycle
system.switch_cpus_1.fetch.icacheStallCycles     17992726                       # Number of cycles fetch is stalled on an Icache miss
system.switch_cpus_1.fetch.predictedBranches    100636347                       # Number of branches that fetch has predicted taken
system.switch_cpus_1.fetch.rate              2.228941                       # Number of inst fetches per cycle
system.switch_cpus_1.fetch.rateDist::samples    602980717                       # Number of instructions fetched each cycle (Total)
system.switch_cpus_1.fetch.rateDist::mean     4.175215                       # Number of instructions fetched each cycle (Total)
system.switch_cpus_1.fetch.rateDist::stdev     3.516589                       # Number of instructions fetched each cycle (Total)
system.switch_cpus_1.fetch.rateDist::underflows            0      0.00%      0.00% # Number of instructions fetched each cycle (Total)
system.switch_cpus_1.fetch.rateDist::0      193558985     32.10%     32.10% # Number of instructions fetched each cycle (Total)
system.switch_cpus_1.fetch.rateDist::1       33409305      5.54%     37.64% # Number of instructions fetched each cycle (Total)
system.switch_cpus_1.fetch.rateDist::2       16626516      2.76%     40.40% # Number of instructions fetched each cycle (Total)
system.switch_cpus_1.fetch.rateDist::3       35007384      5.81%     46.20% # Number of instructions fetched each cycle (Total)
system.switch_cpus_1.fetch.rateDist::4       28520429      4.73%     50.93% # Number of instructions fetched each cycle (Total)
system.switch_cpus_1.fetch.rateDist::5       24027841      3.98%     54.92% # Number of instructions fetched each cycle (Total)
system.switch_cpus_1.fetch.rateDist::6       21785880      3.61%     58.53% # Number of instructions fetched each cycle (Total)
system.switch_cpus_1.fetch.rateDist::7       19401712      3.22%     61.75% # Number of instructions fetched each cycle (Total)
system.switch_cpus_1.fetch.rateDist::8      230642665     38.25%    100.00% # Number of instructions fetched each cycle (Total)
system.switch_cpus_1.fetch.rateDist::overflows            0      0.00%    100.00% # Number of instructions fetched each cycle (Total)
system.switch_cpus_1.fetch.rateDist::min_value            0                       # Number of instructions fetched each cycle (Total)
system.switch_cpus_1.fetch.rateDist::max_value            8                       # Number of instructions fetched each cycle (Total)
system.switch_cpus_1.fetch.rateDist::total    602980717                       # Number of instructions fetched each cycle (Total)
system.switch_cpus_1.fp_regfile_reads       597143093                       # number of floating regfile reads
system.switch_cpus_1.fp_regfile_writes      353428122                       # number of floating regfile writes
system.switch_cpus_1.idleCycles                246644                       # Total number of cycles that the CPU has spent unscheduled due to idling
system.switch_cpus_1.iew.branchMispredicts     11457423                       # Number of branch mispredicts detected at execute
system.switch_cpus_1.iew.exec_branches      182994628                       # Number of branches executed
system.switch_cpus_1.iew.exec_nop                   0                       # number of nop insts executed
system.switch_cpus_1.iew.exec_rate           3.440392                       # Inst execution rate
system.switch_cpus_1.iew.exec_refs          394604282                       # number of memory reference insts executed
system.switch_cpus_1.iew.exec_stores        127610915                       # Number of stores executed
system.switch_cpus_1.iew.exec_swp                   0                       # number of swp insts executed
system.switch_cpus_1.iew.iewBlockCycles      90966642                       # Number of cycles IEW is blocking
system.switch_cpus_1.iew.iewDispLoadInsts    287892316                       # Number of dispatched load instructions
system.switch_cpus_1.iew.iewDispNonSpecInsts       144067                       # Number of dispatched non-speculative instructions
system.switch_cpus_1.iew.iewDispSquashedInsts       213977                       # Number of squashed instructions skipped by dispatch
system.switch_cpus_1.iew.iewDispStoreInsts    141644097                       # Number of dispatched store instructions
system.switch_cpus_1.iew.iewDispatchedInsts   2246310856                       # Number of instructions dispatched to IQ
system.switch_cpus_1.iew.iewExecLoadInsts    266993367                       # Number of load instructions executed
system.switch_cpus_1.iew.iewExecSquashedInsts     20359556                       # Number of squashed instructions skipped in execute
system.switch_cpus_1.iew.iewExecutedInsts   2075338668                       # Number of executed instructions
system.switch_cpus_1.iew.iewIQFullEvents       259666                       # Number of times the IQ has become full, causing a stall
system.switch_cpus_1.iew.iewIdleCycles              0                       # Number of cycles IEW is idle
system.switch_cpus_1.iew.iewLSQFullEvents      1716541                       # Number of times the LSQ has become full, causing a stall
system.switch_cpus_1.iew.iewSquashCycles      8544432                       # Number of cycles IEW is squashing
system.switch_cpus_1.iew.iewUnblockCycles      2327012                       # Number of cycles IEW is unblocking
system.switch_cpus_1.iew.lsq.thread0.blockedLoads            0                       # Number of blocked loads due to partial load-store forwarding
system.switch_cpus_1.iew.lsq.thread0.cacheBlocked       207047                       # Number of times an access to memory failed due to the cache being blocked
system.switch_cpus_1.iew.lsq.thread0.forwLoads     22998933                       # Number of loads that had data forwarded from stores
system.switch_cpus_1.iew.lsq.thread0.ignoredResponses        52355                       # Number of memory responses ignored because the instruction is squashed
system.switch_cpus_1.iew.lsq.thread0.invAddrLoads            0                       # Number of loads ignored due to an invalid address
system.switch_cpus_1.iew.lsq.thread0.invAddrSwpfs            0                       # Number of software prefetches ignored due to an invalid address
system.switch_cpus_1.iew.lsq.thread0.memOrderViolation        19444                       # Number of memory ordering violations
system.switch_cpus_1.iew.lsq.thread0.rescheduledLoads         1586                       # Number of loads that were rescheduled
system.switch_cpus_1.iew.lsq.thread0.squashedLoads     49369207                       # Number of loads squashed
system.switch_cpus_1.iew.lsq.thread0.squashedStores     25111890                       # Number of stores squashed
system.switch_cpus_1.iew.memOrderViolationEvents        19444                       # Number of memory order violations
system.switch_cpus_1.iew.predictedNotTakenIncorrect     10401328                       # Number of branches that were predicted not taken incorrectly
system.switch_cpus_1.iew.predictedTakenIncorrect      1056095                       # Number of branches that were predicted taken incorrectly
system.switch_cpus_1.iew.wb_consumers      2599935829                       # num instructions consuming a value
system.switch_cpus_1.iew.wb_count          2067937800                       # cumulative count of insts written-back
system.switch_cpus_1.iew.wb_fanout           0.598684                       # average fanout of values written-back
system.switch_cpus_1.iew.wb_producers      1556540476                       # num instructions producing a value
system.switch_cpus_1.iew.wb_rate             3.428123                       # insts written-back per cycle
system.switch_cpus_1.iew.wb_sent           2073523635                       # cumulative count of insts sent to commit
system.switch_cpus_1.int_regfile_reads     2621973823                       # number of integer regfile reads
system.switch_cpus_1.int_regfile_writes    1404140101                       # number of integer regfile writes
system.switch_cpus_1.ipc                     1.657750                       # IPC: Instructions Per Cycle
system.switch_cpus_1.ipc_total               1.657750                       # IPC: Total IPC of All Threads
system.switch_cpus_1.iq.FU_type_0::No_OpClass      6995950      0.33%      0.33% # Type of FU issued
system.switch_cpus_1.iq.FU_type_0::IntAlu   1439287022     68.68%     69.01% # Type of FU issued
system.switch_cpus_1.iq.FU_type_0::IntMult      1140476      0.05%     69.07% # Type of FU issued
system.switch_cpus_1.iq.FU_type_0::IntDiv      6624056      0.32%     69.38% # Type of FU issued
system.switch_cpus_1.iq.FU_type_0::FloatAdd     51715624      2.47%     71.85% # Type of FU issued
system.switch_cpus_1.iq.FU_type_0::FloatCmp            0      0.00%     71.85% # Type of FU issued
system.switch_cpus_1.iq.FU_type_0::FloatCvt          998      0.00%     71.85% # Type of FU issued
system.switch_cpus_1.iq.FU_type_0::FloatMult            0      0.00%     71.85% # Type of FU issued
system.switch_cpus_1.iq.FU_type_0::FloatMultAcc            0      0.00%     71.85% # Type of FU issued
system.switch_cpus_1.iq.FU_type_0::FloatDiv            0      0.00%     71.85% # Type of FU issued
system.switch_cpus_1.iq.FU_type_0::FloatMisc            0      0.00%     71.85% # Type of FU issued
system.switch_cpus_1.iq.FU_type_0::FloatSqrt            0      0.00%     71.85% # Type of FU issued
system.switch_cpus_1.iq.FU_type_0::SimdAdd          177      0.00%     71.85% # Type of FU issued
system.switch_cpus_1.iq.FU_type_0::SimdAddAcc            0      0.00%     71.85% # Type of FU issued
system.switch_cpus_1.iq.FU_type_0::SimdAlu     43943023      2.10%     73.95% # Type of FU issued
system.switch_cpus_1.iq.FU_type_0::SimdCmp       825555      0.04%     73.99% # Type of FU issued
system.switch_cpus_1.iq.FU_type_0::SimdCvt      5460088      0.26%     74.25% # Type of FU issued
system.switch_cpus_1.iq.FU_type_0::SimdMisc     23515474      1.12%     75.37% # Type of FU issued
system.switch_cpus_1.iq.FU_type_0::SimdMult            0      0.00%     75.37% # Type of FU issued
system.switch_cpus_1.iq.FU_type_0::SimdMultAcc            0      0.00%     75.37% # Type of FU issued
system.switch_cpus_1.iq.FU_type_0::SimdShift          141      0.00%     75.37% # Type of FU issued
system.switch_cpus_1.iq.FU_type_0::SimdShiftAcc            0      0.00%     75.37% # Type of FU issued
system.switch_cpus_1.iq.FU_type_0::SimdDiv            0      0.00%     75.37% # Type of FU issued
system.switch_cpus_1.iq.FU_type_0::SimdSqrt            0      0.00%     75.37% # Type of FU issued
system.switch_cpus_1.iq.FU_type_0::SimdFloatAdd     50540380      2.41%     77.78% # Type of FU issued
system.switch_cpus_1.iq.FU_type_0::SimdFloatAlu            0      0.00%     77.78% # Type of FU issued
system.switch_cpus_1.iq.FU_type_0::SimdFloatCmp            0      0.00%     77.78% # Type of FU issued
system.switch_cpus_1.iq.FU_type_0::SimdFloatCvt     36883629      1.76%     79.54% # Type of FU issued
system.switch_cpus_1.iq.FU_type_0::SimdFloatDiv      1922252      0.09%     79.63% # Type of FU issued
system.switch_cpus_1.iq.FU_type_0::SimdFloatMisc            0      0.00%     79.63% # Type of FU issued
system.switch_cpus_1.iq.FU_type_0::SimdFloatMult     24345724      1.16%     80.79% # Type of FU issued
system.switch_cpus_1.iq.FU_type_0::SimdFloatMultAcc            0      0.00%     80.79% # Type of FU issued
system.switch_cpus_1.iq.FU_type_0::SimdFloatSqrt            0      0.00%     80.79% # Type of FU issued
system.switch_cpus_1.iq.FU_type_0::SimdReduceAdd            0      0.00%     80.79% # Type of FU issued
system.switch_cpus_1.iq.FU_type_0::SimdReduceAlu            0      0.00%     80.79% # Type of FU issued
system.switch_cpus_1.iq.FU_type_0::SimdReduceCmp            0      0.00%     80.79% # Type of FU issued
system.switch_cpus_1.iq.FU_type_0::SimdFloatReduceAdd            0      0.00%     80.79% # Type of FU issued
system.switch_cpus_1.iq.FU_type_0::SimdFloatReduceCmp            0      0.00%     80.79% # Type of FU issued
system.switch_cpus_1.iq.FU_type_0::SimdAes            0      0.00%     80.79% # Type of FU issued
system.switch_cpus_1.iq.FU_type_0::SimdAesMix            0      0.00%     80.79% # Type of FU issued
system.switch_cpus_1.iq.FU_type_0::SimdSha1Hash            0      0.00%     80.79% # Type of FU issued
system.switch_cpus_1.iq.FU_type_0::SimdSha1Hash2            0      0.00%     80.79% # Type of FU issued
system.switch_cpus_1.iq.FU_type_0::SimdSha256Hash            0      0.00%     80.79% # Type of FU issued
system.switch_cpus_1.iq.FU_type_0::SimdSha256Hash2            0      0.00%     80.79% # Type of FU issued
system.switch_cpus_1.iq.FU_type_0::SimdShaSigma2            0      0.00%     80.79% # Type of FU issued
system.switch_cpus_1.iq.FU_type_0::SimdShaSigma3            0      0.00%     80.79% # Type of FU issued
system.switch_cpus_1.iq.FU_type_0::SimdPredAlu            0      0.00%     80.79% # Type of FU issued
system.switch_cpus_1.iq.FU_type_0::MemRead    203285461      9.70%     90.49% # Type of FU issued
system.switch_cpus_1.iq.FU_type_0::MemWrite    119877429      5.72%     96.21% # Type of FU issued
system.switch_cpus_1.iq.FU_type_0::FloatMemRead     68074840      3.25%     99.46% # Type of FU issued
system.switch_cpus_1.iq.FU_type_0::FloatMemWrite     11259930      0.54%    100.00% # Type of FU issued
system.switch_cpus_1.iq.FU_type_0::IprAccess            0      0.00%    100.00% # Type of FU issued
system.switch_cpus_1.iq.FU_type_0::InstPrefetch            0      0.00%    100.00% # Type of FU issued
system.switch_cpus_1.iq.FU_type_0::total   2095698229                       # Type of FU issued
system.switch_cpus_1.iq.fp_alu_accesses     396416731                       # Number of floating point alu accesses
system.switch_cpus_1.iq.fp_inst_queue_reads    790349481                       # Number of floating instruction queue reads
system.switch_cpus_1.iq.fp_inst_queue_wakeup_accesses    391737102                       # Number of floating instruction queue wakeup accesses
system.switch_cpus_1.iq.fp_inst_queue_writes    517925732                       # Number of floating instruction queue writes
system.switch_cpus_1.iq.fu_busy_cnt          53498716                       # FU busy when requested
system.switch_cpus_1.iq.fu_busy_rate         0.025528                       # FU busy rate (busy events/executed inst)
system.switch_cpus_1.iq.fu_full::No_OpClass            0      0.00%      0.00% # attempts to use FU when none available
system.switch_cpus_1.iq.fu_full::IntAlu      45588562     85.21%     85.21% # attempts to use FU when none available
system.switch_cpus_1.iq.fu_full::IntMult            0      0.00%     85.21% # attempts to use FU when none available
system.switch_cpus_1.iq.fu_full::IntDiv             0      0.00%     85.21% # attempts to use FU when none available
system.switch_cpus_1.iq.fu_full::FloatAdd            0      0.00%     85.21% # attempts to use FU when none available
system.switch_cpus_1.iq.fu_full::FloatCmp            0      0.00%     85.21% # attempts to use FU when none available
system.switch_cpus_1.iq.fu_full::FloatCvt            6      0.00%     85.21% # attempts to use FU when none available
system.switch_cpus_1.iq.fu_full::FloatMult            0      0.00%     85.21% # attempts to use FU when none available
system.switch_cpus_1.iq.fu_full::FloatMultAcc            0      0.00%     85.21% # attempts to use FU when none available
system.switch_cpus_1.iq.fu_full::FloatDiv            0      0.00%     85.21% # attempts to use FU when none available
system.switch_cpus_1.iq.fu_full::FloatMisc            0      0.00%     85.21% # attempts to use FU when none available
system.switch_cpus_1.iq.fu_full::FloatSqrt            0      0.00%     85.21% # attempts to use FU when none available
system.switch_cpus_1.iq.fu_full::SimdAdd            0      0.00%     85.21% # attempts to use FU when none available
system.switch_cpus_1.iq.fu_full::SimdAddAcc            0      0.00%     85.21% # attempts to use FU when none available
system.switch_cpus_1.iq.fu_full::SimdAlu       156871      0.29%     85.51% # attempts to use FU when none available
system.switch_cpus_1.iq.fu_full::SimdCmp        34748      0.06%     85.57% # attempts to use FU when none available
system.switch_cpus_1.iq.fu_full::SimdCvt       575851      1.08%     86.65% # attempts to use FU when none available
system.switch_cpus_1.iq.fu_full::SimdMisc       157193      0.29%     86.94% # attempts to use FU when none available
system.switch_cpus_1.iq.fu_full::SimdMult            0      0.00%     86.94% # attempts to use FU when none available
system.switch_cpus_1.iq.fu_full::SimdMultAcc            0      0.00%     86.94% # attempts to use FU when none available
system.switch_cpus_1.iq.fu_full::SimdShift            0      0.00%     86.94% # attempts to use FU when none available
system.switch_cpus_1.iq.fu_full::SimdShiftAcc            0      0.00%     86.94% # attempts to use FU when none available
system.switch_cpus_1.iq.fu_full::SimdDiv            0      0.00%     86.94% # attempts to use FU when none available
system.switch_cpus_1.iq.fu_full::SimdSqrt            0      0.00%     86.94% # attempts to use FU when none available
system.switch_cpus_1.iq.fu_full::SimdFloatAdd        26990      0.05%     86.99% # attempts to use FU when none available
system.switch_cpus_1.iq.fu_full::SimdFloatAlu            0      0.00%     86.99% # attempts to use FU when none available
system.switch_cpus_1.iq.fu_full::SimdFloatCmp            0      0.00%     86.99% # attempts to use FU when none available
system.switch_cpus_1.iq.fu_full::SimdFloatCvt       443421      0.83%     87.82% # attempts to use FU when none available
system.switch_cpus_1.iq.fu_full::SimdFloatDiv            0      0.00%     87.82% # attempts to use FU when none available
system.switch_cpus_1.iq.fu_full::SimdFloatMisc            0      0.00%     87.82% # attempts to use FU when none available
system.switch_cpus_1.iq.fu_full::SimdFloatMult         4368      0.01%     87.83% # attempts to use FU when none available
system.switch_cpus_1.iq.fu_full::SimdFloatMultAcc            0      0.00%     87.83% # attempts to use FU when none available
system.switch_cpus_1.iq.fu_full::SimdFloatSqrt            0      0.00%     87.83% # attempts to use FU when none available
system.switch_cpus_1.iq.fu_full::SimdReduceAdd            0      0.00%     87.83% # attempts to use FU when none available
system.switch_cpus_1.iq.fu_full::SimdReduceAlu            0      0.00%     87.83% # attempts to use FU when none available
system.switch_cpus_1.iq.fu_full::SimdReduceCmp            0      0.00%     87.83% # attempts to use FU when none available
system.switch_cpus_1.iq.fu_full::SimdFloatReduceAdd            0      0.00%     87.83% # attempts to use FU when none available
system.switch_cpus_1.iq.fu_full::SimdFloatReduceCmp            0      0.00%     87.83% # attempts to use FU when none available
system.switch_cpus_1.iq.fu_full::SimdAes            0      0.00%     87.83% # attempts to use FU when none available
system.switch_cpus_1.iq.fu_full::SimdAesMix            0      0.00%     87.83% # attempts to use FU when none available
system.switch_cpus_1.iq.fu_full::SimdSha1Hash            0      0.00%     87.83% # attempts to use FU when none available
system.switch_cpus_1.iq.fu_full::SimdSha1Hash2            0      0.00%     87.83% # attempts to use FU when none available
system.switch_cpus_1.iq.fu_full::SimdSha256Hash            0      0.00%     87.83% # attempts to use FU when none available
system.switch_cpus_1.iq.fu_full::SimdSha256Hash2            0      0.00%     87.83% # attempts to use FU when none available
system.switch_cpus_1.iq.fu_full::SimdShaSigma2            0      0.00%     87.83% # attempts to use FU when none available
system.switch_cpus_1.iq.fu_full::SimdShaSigma3            0      0.00%     87.83% # attempts to use FU when none available
system.switch_cpus_1.iq.fu_full::SimdPredAlu            0      0.00%     87.83% # attempts to use FU when none available
system.switch_cpus_1.iq.fu_full::MemRead      3114052      5.82%     93.65% # attempts to use FU when none available
system.switch_cpus_1.iq.fu_full::MemWrite      2116123      3.96%     97.61% # attempts to use FU when none available
system.switch_cpus_1.iq.fu_full::FloatMemRead       705981      1.32%     98.93% # attempts to use FU when none available
system.switch_cpus_1.iq.fu_full::FloatMemWrite       574550      1.07%    100.00% # attempts to use FU when none available
system.switch_cpus_1.iq.fu_full::IprAccess            0      0.00%    100.00% # attempts to use FU when none available
system.switch_cpus_1.iq.fu_full::InstPrefetch            0      0.00%    100.00% # attempts to use FU when none available
system.switch_cpus_1.iq.int_alu_accesses   1745784264                       # Number of integer alu accesses
system.switch_cpus_1.iq.int_inst_queue_reads   4066972933                       # Number of integer instruction queue reads
system.switch_cpus_1.iq.int_inst_queue_wakeup_accesses   1676200698                       # Number of integer instruction queue wakeup accesses
system.switch_cpus_1.iq.int_inst_queue_writes   2102147548                       # Number of integer instruction queue writes
system.switch_cpus_1.iq.iqInstsAdded       2245778021                       # Number of instructions added to the IQ (excludes non-spec)
system.switch_cpus_1.iq.iqInstsIssued      2095698229                       # Number of instructions issued
system.switch_cpus_1.iq.iqNonSpecInstsAdded       532835                       # Number of non-speculative instructions added to the IQ
system.switch_cpus_1.iq.iqSquashedInstsExamined    373744774                       # Number of squashed instructions iterated over during squash; mainly for profiling
system.switch_cpus_1.iq.iqSquashedInstsIssued      9446528                       # Number of squashed instructions issued
system.switch_cpus_1.iq.iqSquashedNonSpecRemoved       526593                       # Number of squashed non-spec instructions that were removed
system.switch_cpus_1.iq.iqSquashedOperandsExamined    526863386                       # Number of squashed operands that are examined and possibly removed from graph
system.switch_cpus_1.iq.issued_per_cycle::samples    602980717                       # Number of insts issued each cycle
system.switch_cpus_1.iq.issued_per_cycle::mean     3.475564                       # Number of insts issued each cycle
system.switch_cpus_1.iq.issued_per_cycle::stdev     2.973487                       # Number of insts issued each cycle
system.switch_cpus_1.iq.issued_per_cycle::underflows            0      0.00%      0.00% # Number of insts issued each cycle
system.switch_cpus_1.iq.issued_per_cycle::0    200455095     33.24%     33.24% # Number of insts issued each cycle
system.switch_cpus_1.iq.issued_per_cycle::1     19987734      3.31%     36.56% # Number of insts issued each cycle
system.switch_cpus_1.iq.issued_per_cycle::2     32080572      5.32%     41.88% # Number of insts issued each cycle
system.switch_cpus_1.iq.issued_per_cycle::3     41466688      6.88%     48.76% # Number of insts issued each cycle
system.switch_cpus_1.iq.issued_per_cycle::4     49482270      8.21%     56.96% # Number of insts issued each cycle
system.switch_cpus_1.iq.issued_per_cycle::5     57650050      9.56%     66.52% # Number of insts issued each cycle
system.switch_cpus_1.iq.issued_per_cycle::6     75050745     12.45%     78.97% # Number of insts issued each cycle
system.switch_cpus_1.iq.issued_per_cycle::7     63795017     10.58%     89.55% # Number of insts issued each cycle
system.switch_cpus_1.iq.issued_per_cycle::8     63012546     10.45%    100.00% # Number of insts issued each cycle
system.switch_cpus_1.iq.issued_per_cycle::overflows            0      0.00%    100.00% # Number of insts issued each cycle
system.switch_cpus_1.iq.issued_per_cycle::min_value            0                       # Number of insts issued each cycle
system.switch_cpus_1.iq.issued_per_cycle::max_value            8                       # Number of insts issued each cycle
system.switch_cpus_1.iq.issued_per_cycle::total    602980717                       # Number of insts issued each cycle
system.switch_cpus_1.iq.rate                 3.474143                       # Inst issue rate
system.switch_cpus_1.iq.vec_alu_accesses            0                       # Number of vector alu accesses
system.switch_cpus_1.iq.vec_inst_queue_reads            0                       # Number of vector instruction queue reads
system.switch_cpus_1.iq.vec_inst_queue_wakeup_accesses            0                       # Number of vector instruction queue wakeup accesses
system.switch_cpus_1.iq.vec_inst_queue_writes            0                       # Number of vector instruction queue writes
system.switch_cpus_1.itb.rdAccesses                 0                       # TLB accesses on read requests
system.switch_cpus_1.itb.rdMisses                   0                       # TLB misses on read requests
system.switch_cpus_1.itb.wrAccesses         180588677                       # TLB accesses on write requests
system.switch_cpus_1.itb.wrMisses               30754                       # TLB misses on write requests
system.switch_cpus_1.memDep0.conflictingLoads     12010230                       # Number of conflicting loads.
system.switch_cpus_1.memDep0.conflictingStores      5326408                       # Number of conflicting stores.
system.switch_cpus_1.memDep0.insertedLoads    287892316                       # Number of loads inserted to the mem dependence unit.
system.switch_cpus_1.memDep0.insertedStores    141644097                       # Number of stores inserted to the mem dependence unit.
system.switch_cpus_1.misc_regfile_reads     816219255                       # number of misc regfile reads
system.switch_cpus_1.misc_regfile_writes           63                       # number of misc regfile writes
system.switch_cpus_1.numCycles              603227361                       # number of cpu cycles simulated
system.switch_cpus_1.numWorkItemsCompleted            0                       # number of work items this cpu completed
system.switch_cpus_1.numWorkItemsStarted            0                       # number of work items this cpu started
system.switch_cpus_1.rename.BlockCycles     113280204                       # Number of cycles rename is blocking
system.switch_cpus_1.rename.CommittedMaps   2112960701                       # Number of HB maps that are committed
system.switch_cpus_1.rename.IQFullEvents     25651934                       # Number of times rename has blocked due to IQ full
system.switch_cpus_1.rename.IdleCycles       70471650                       # Number of cycles rename is idle
system.switch_cpus_1.rename.LQFullEvents     24785338                       # Number of times rename has blocked due to LQ full
system.switch_cpus_1.rename.ROBFullEvents      2929205                       # Number of times rename has blocked due to ROB full
system.switch_cpus_1.rename.RenameLookups   5710924782                       # Number of register rename lookups that rename has made
system.switch_cpus_1.rename.RenamedInsts   2340781819                       # Number of instructions processed by rename
system.switch_cpus_1.rename.RenamedOperands   2616569903                       # Number of destination operands rename has renamed
system.switch_cpus_1.rename.RunCycles       322225144                       # Number of cycles rename is running
system.switch_cpus_1.rename.SQFullEvents     26880511                       # Number of times rename has blocked due to SQ full
system.switch_cpus_1.rename.SquashCycles      8544432                       # Number of cycles rename is squashing
system.switch_cpus_1.rename.UnblockCycles     88428403                       # Number of cycles rename is unblocking
system.switch_cpus_1.rename.UndoneMaps      503609131                       # Number of HB maps that are undone due to squashing
system.switch_cpus_1.rename.fp_rename_lookups    692863909                       # Number of floating rename lookups
system.switch_cpus_1.rename.int_rename_lookups   3021443633                       # Number of integer rename lookups
system.switch_cpus_1.rename.serializeStallCycles        30877                       # count of cycles rename stalled for serializing inst
system.switch_cpus_1.rename.serializingInsts         3621                       # count of serializing insts renamed
system.switch_cpus_1.rename.skidInsts       122243073                       # count of insts added to the skid buffer
system.switch_cpus_1.rename.tempSerializingInsts         4459                       # count of temporary serializing insts renamed
system.switch_cpus_1.rob.rob_reads         2637707877                       # The number of ROB reads
system.switch_cpus_1.rob.rob_writes        4533325940                       # The number of ROB writes
system.switch_cpus_1.timesIdled                  6813                       # Number of times that the entire CPU went into an idle state and unscheduled itself
system.tol2bus.snoop_filter.hit_multi_requests          108                       # Number of requests hitting in the snoop filter with multiple (>1) holders of the requested data.
system.tol2bus.snoop_filter.hit_multi_snoops            2                       # Number of snoops hitting in the snoop filter with multiple (>1) holders of the requested data.
system.tol2bus.snoop_filter.hit_single_requests      2224293                       # Number of requests hitting in the snoop filter with a single holder of the requested data.
system.tol2bus.snoop_filter.hit_single_snoops        43553                       # Number of snoops hitting in the snoop filter with a single holder of the requested data.
system.tol2bus.snoop_filter.tot_requests      4445032                       # Total number of requests made to the snoop filter.
system.tol2bus.snoop_filter.tot_snoops          43555                       # Total number of snoops made to the snoop filter.
system.tol3bus.snoop_filter.hit_multi_requests            0                       # Number of requests hitting in the snoop filter with multiple (>1) holders of the requested data.
system.tol3bus.snoop_filter.hit_multi_snoops            0                       # Number of snoops hitting in the snoop filter with multiple (>1) holders of the requested data.
system.tol3bus.snoop_filter.hit_single_requests      1181223                       # Number of requests hitting in the snoop filter with a single holder of the requested data.
system.tol3bus.snoop_filter.hit_single_snoops       179218                       # Number of snoops hitting in the snoop filter with a single holder of the requested data.
system.tol3bus.snoop_filter.tot_requests      2362164                       # Total number of requests made to the snoop filter.
system.tol3bus.snoop_filter.tot_snoops         179218                       # Total number of snoops made to the snoop filter.
system.membus.trans_dist::ReadResp             913039                       # Transaction distribution
system.membus.trans_dist::WritebackDirty       327587                       # Transaction distribution
system.membus.trans_dist::CleanEvict           735317                       # Transaction distribution
system.membus.trans_dist::UpgradeReq                3                       # Transaction distribution
system.membus.trans_dist::ReadExReq            149779                       # Transaction distribution
system.membus.trans_dist::ReadExResp           149779                       # Transaction distribution
system.membus.trans_dist::ReadSharedReq        913039                       # Transaction distribution
system.membus.pkt_count_system.l3.mem_side::system.mem_ctrls.port      3188543                       # Packet count per connected master and slave (bytes)
system.membus.pkt_count_system.l3.mem_side::total      3188543                       # Packet count per connected master and slave (bytes)
system.membus.pkt_count::total                3188543                       # Packet count per connected master and slave (bytes)
system.membus.pkt_size_system.l3.mem_side::system.mem_ctrls.port     88985920                       # Cumulative packet size per connected master and slave (bytes)
system.membus.pkt_size_system.l3.mem_side::total     88985920                       # Cumulative packet size per connected master and slave (bytes)
system.membus.pkt_size::total                88985920                       # Cumulative packet size per connected master and slave (bytes)
system.membus.snoops                                0                       # Total snoops (count)
system.membus.snoopTraffic                          0                       # Total snoop traffic (bytes)
system.membus.snoop_fanout::samples           1062821                       # Request fanout histogram
system.membus.snoop_fanout::mean                    0                       # Request fanout histogram
system.membus.snoop_fanout::stdev                   0                       # Request fanout histogram
system.membus.snoop_fanout::underflows              0      0.00%      0.00% # Request fanout histogram
system.membus.snoop_fanout::0                 1062821    100.00%    100.00% # Request fanout histogram
system.membus.snoop_fanout::1                       0      0.00%    100.00% # Request fanout histogram
system.membus.snoop_fanout::overflows               0      0.00%    100.00% # Request fanout histogram
system.membus.snoop_fanout::min_value               0                       # Request fanout histogram
system.membus.snoop_fanout::max_value               0                       # Request fanout histogram
system.membus.snoop_fanout::total             1062821                       # Request fanout histogram
system.membus.reqLayer2.occupancy          3688416000                       # Layer occupancy (ticks)
system.membus.reqLayer2.utilization               1.2                       # Layer utilization (%)
system.membus.respLayer1.occupancy         5620819250                       # Layer occupancy (ticks)
system.membus.respLayer1.utilization              1.9                       # Layer utilization (%)
system.membus.power_state.pwrStateResidencyTicks::UNDEFINED 1528383173500                       # Cumulative time (in ticks) in various power states
system.switch_cpus_1.dtb.walker.power_state.pwrStateResidencyTicks::UNDEFINED 1528383173500                       # Cumulative time (in ticks) in various power states
system.switch_cpus_1.itb.walker.power_state.pwrStateResidencyTicks::UNDEFINED 1528383173500                       # Cumulative time (in ticks) in various power states
system.switch_cpus_1.power_state.pwrStateResidencyTicks::OFF 1528383173500                       # Cumulative time (in ticks) in various power states
system.switch_cpus.dtb.walker.power_state.pwrStateResidencyTicks::UNDEFINED 1528383173500                       # Cumulative time (in ticks) in various power states
system.switch_cpus.itb.walker.power_state.pwrStateResidencyTicks::UNDEFINED 1528383173500                       # Cumulative time (in ticks) in various power states
system.switch_cpus.power_state.numTransitions            1                       # Number of power state transitions
system.switch_cpus.power_state.pwrStateResidencyTicks::OFF 1528383173500                       # Cumulative time (in ticks) in various power states
system.tol2bus.trans_dist::ReadResp           2010687                       # Transaction distribution
system.tol2bus.trans_dist::WritebackDirty       818697                       # Transaction distribution
system.tol2bus.trans_dist::WritebackClean       922454                       # Transaction distribution
system.tol2bus.trans_dist::CleanEvict         1843707                       # Transaction distribution
system.tol2bus.trans_dist::UpgradeReq            3659                       # Transaction distribution
system.tol2bus.trans_dist::UpgradeResp           3659                       # Transaction distribution
system.tol2bus.trans_dist::ReadExReq           210018                       # Transaction distribution
system.tol2bus.trans_dist::ReadExResp          210018                       # Transaction distribution
system.tol2bus.trans_dist::ReadCleanReq        922491                       # Transaction distribution
system.tol2bus.trans_dist::ReadSharedReq      1088196                       # Transaction distribution
system.tol2bus.pkt_count_system.cpu.icache.mem_side::system.l2.cpu_side      2767399                       # Packet count per connected master and slave (bytes)
system.tol2bus.pkt_count_system.cpu.dcache.mem_side::system.l2.cpu_side      3901960                       # Packet count per connected master and slave (bytes)
system.tol2bus.pkt_count::total               6669359                       # Packet count per connected master and slave (bytes)
system.tol2bus.pkt_size_system.cpu.icache.mem_side::system.l2.cpu_side    118074112                       # Cumulative packet size per connected master and slave (bytes)
system.tol2bus.pkt_size_system.cpu.dcache.mem_side::system.l2.cpu_side    111200960                       # Cumulative packet size per connected master and slave (bytes)
system.tol2bus.pkt_size::total              229275072                       # Cumulative packet size per connected master and slave (bytes)
system.tol2bus.snoops                         1364227                       # Total snoops (count)
system.tol2bus.snoopTraffic                  24283712                       # Total snoop traffic (bytes)
system.tol2bus.snoop_fanout::samples          3588554                       # Request fanout histogram
system.tol2bus.snoop_fanout::mean            0.012169                       # Request fanout histogram
system.tol2bus.snoop_fanout::stdev           0.109644                       # Request fanout histogram
system.tol2bus.snoop_fanout::underflows             0      0.00%      0.00% # Request fanout histogram
system.tol2bus.snoop_fanout::0                3544888     98.78%     98.78% # Request fanout histogram
system.tol2bus.snoop_fanout::1                  43664      1.22%    100.00% # Request fanout histogram
system.tol2bus.snoop_fanout::2                      2      0.00%    100.00% # Request fanout histogram
system.tol2bus.snoop_fanout::3                      0      0.00%    100.00% # Request fanout histogram
system.tol2bus.snoop_fanout::4                      0      0.00%    100.00% # Request fanout histogram
system.tol2bus.snoop_fanout::overflows              0      0.00%    100.00% # Request fanout histogram
system.tol2bus.snoop_fanout::min_value              0                       # Request fanout histogram
system.tol2bus.snoop_fanout::max_value              2                       # Request fanout histogram
system.tol2bus.snoop_fanout::total            3588554                       # Request fanout histogram
system.tol2bus.reqLayer0.occupancy         3584271000                       # Layer occupancy (ticks)
system.tol2bus.reqLayer0.utilization              1.2                       # Layer utilization (%)
system.tol2bus.respLayer1.occupancy        1949173454                       # Layer occupancy (ticks)
system.tol2bus.respLayer1.utilization             0.6                       # Layer utilization (%)
system.tol2bus.respLayer0.occupancy        1383746480                       # Layer occupancy (ticks)
system.tol2bus.respLayer0.utilization             0.5                       # Layer utilization (%)
system.tol2bus.power_state.pwrStateResidencyTicks::UNDEFINED 1528383173500                       # Cumulative time (in ticks) in various power states
system.voltage_domain.voltage                       1                       # Voltage in Volts
system.clk_domain.clock                          1000                       # Clock period in ticks
system.l2.demand_hits::.switch_cpus_1.inst       918801                       # number of demand (read+write) hits
system.l2.demand_hits::.switch_cpus_1.data       120924                       # number of demand (read+write) hits
system.l2.demand_hits::total                  1039725                       # number of demand (read+write) hits
system.l2.overall_hits::.switch_cpus_1.inst       918801                       # number of overall hits
system.l2.overall_hits::.switch_cpus_1.data       120924                       # number of overall hits
system.l2.overall_hits::total                 1039725                       # number of overall hits
system.l2.demand_misses::.switch_cpus_1.inst         3653                       # number of demand (read+write) misses
system.l2.demand_misses::.switch_cpus_1.data      1177290                       # number of demand (read+write) misses
system.l2.demand_misses::total                1180943                       # number of demand (read+write) misses
system.l2.overall_misses::.switch_cpus_1.inst         3653                       # number of overall misses
system.l2.overall_misses::.switch_cpus_1.data      1177290                       # number of overall misses
system.l2.overall_misses::total               1180943                       # number of overall misses
system.l2.demand_miss_latency::.switch_cpus_1.inst    322886000                       # number of demand (read+write) miss cycles
system.l2.demand_miss_latency::.switch_cpus_1.data  98881231500                       # number of demand (read+write) miss cycles
system.l2.demand_miss_latency::total      99204117500                       # number of demand (read+write) miss cycles
system.l2.overall_miss_latency::.switch_cpus_1.inst    322886000                       # number of overall miss cycles
system.l2.overall_miss_latency::.switch_cpus_1.data  98881231500                       # number of overall miss cycles
system.l2.overall_miss_latency::total     99204117500                       # number of overall miss cycles
system.l2.demand_accesses::.switch_cpus_1.inst       922454                       # number of demand (read+write) accesses
system.l2.demand_accesses::.switch_cpus_1.data      1298214                       # number of demand (read+write) accesses
system.l2.demand_accesses::total              2220668                       # number of demand (read+write) accesses
system.l2.overall_accesses::.switch_cpus_1.inst       922454                       # number of overall (read+write) accesses
system.l2.overall_accesses::.switch_cpus_1.data      1298214                       # number of overall (read+write) accesses
[...]
system.cpu.dcache.demand_avg_miss_latency::total 63215.591587                       # average overall miss latency
system.cpu.dcache.overall_avg_miss_latency::.switch_cpus.data 38151.408451                       # average overall miss latency
system.cpu.dcache.overall_avg_miss_latency::.switch_cpus_1.data 66558.926708                       # average overall miss latency
system.cpu.dcache.overall_avg_miss_latency::total 63209.741419                       # average overall miss latency
system.cpu.dcache.blocked_cycles::no_mshrs      8980297                       # number of cycles access was blocked
system.cpu.dcache.blocked_cycles::no_targets         7818                       # number of cycles access was blocked
system.cpu.dcache.blocked::no_mshrs            227498                       # number of cycles access was blocked
system.cpu.dcache.blocked::no_targets              49                       # number of cycles access was blocked
system.cpu.dcache.avg_blocked_cycles::no_mshrs    39.474180                       # average number of cycles each access was blocked
system.cpu.dcache.avg_blocked_cycles::no_targets   159.551020                       # average number of cycles each access was blocked
system.cpu.dcache.writebacks::.writebacks       768270                       # number of writebacks
system.cpu.dcache.writebacks::total            768270                       # number of writebacks
system.cpu.dcache.demand_mshr_hits::.switch_cpus_1.data      5352088                       # number of demand (read+write) MSHR hits
system.cpu.dcache.demand_mshr_hits::total      5352088                       # number of demand (read+write) MSHR hits
system.cpu.dcache.overall_mshr_hits::.switch_cpus_1.data      5352088                       # number of overall MSHR hits
system.cpu.dcache.overall_mshr_hits::total      5352088                       # number of overall MSHR hits
system.cpu.dcache.demand_mshr_misses::.switch_cpus.data        28116                       # number of demand (read+write) MSHR misses
system.cpu.dcache.demand_mshr_misses::.switch_cpus_1.data      1301471                       # number of demand (read+write) MSHR misses
system.cpu.dcache.demand_mshr_misses::total      1329587                       # number of demand (read+write) MSHR misses
system.cpu.dcache.overall_mshr_misses::.switch_cpus.data        28116                       # number of overall MSHR misses
system.cpu.dcache.overall_mshr_misses::.switch_cpus_1.data      1301850                       # number of overall MSHR misses
system.cpu.dcache.overall_mshr_misses::total      1329966                       # number of overall MSHR misses
system.cpu.dcache.demand_mshr_miss_latency::.switch_cpus.data   1058607000                       # number of demand (read+write) MSHR miss cycles
system.cpu.dcache.demand_mshr_miss_latency::.switch_cpus_1.data 100887301638                       # number of demand (read+write) MSHR miss cycles
system.cpu.dcache.demand_mshr_miss_latency::total 101945908638                       # number of demand (read+write) MSHR miss cycles
system.cpu.dcache.overall_mshr_miss_latency::.switch_cpus.data   1058607000                       # number of overall MSHR miss cycles
system.cpu.dcache.overall_mshr_miss_latency::.switch_cpus_1.data 100903069638                       # number of overall MSHR miss cycles
system.cpu.dcache.overall_mshr_miss_latency::total 101961676638                       # number of overall MSHR miss cycles
system.cpu.dcache.demand_mshr_miss_rate::.switch_cpus.data     0.000660                       # mshr miss rate for demand accesses
system.cpu.dcache.demand_mshr_miss_rate::.switch_cpus_1.data     0.003624                       # mshr miss rate for demand accesses
system.cpu.dcache.demand_mshr_miss_rate::total     0.001609                       # mshr miss rate for demand accesses
system.cpu.dcache.overall_mshr_miss_rate::.switch_cpus.data     0.000660                       # mshr miss rate for overall accesses
system.cpu.dcache.overall_mshr_miss_rate::.switch_cpus_1.data     0.003623                       # mshr miss rate for overall accesses
system.cpu.dcache.overall_mshr_miss_rate::total     0.001609                       # mshr miss rate for overall accesses
system.cpu.dcache.demand_avg_mshr_miss_latency::.switch_cpus.data 37651.408451                       # average overall mshr miss latency
system.cpu.dcache.demand_avg_mshr_miss_latency::.switch_cpus_1.data 77517.902157                       # average overall mshr miss latency
system.cpu.dcache.demand_avg_mshr_miss_latency::total 76674.868691                       # average overall mshr miss latency
system.cpu.dcache.overall_avg_mshr_miss_latency::.switch_cpus.data 37651.408451                       # average overall mshr miss latency
system.cpu.dcache.overall_avg_mshr_miss_latency::.switch_cpus_1.data 77507.446816                       # average overall mshr miss latency
system.cpu.dcache.overall_avg_mshr_miss_latency::total 76664.874619                       # average overall mshr miss latency
system.cpu.dcache.replacements                1667242                       # number of replacements
system.cpu.dcache.ReadReq_hits::.cpu.data    237889541                       # number of ReadReq hits
system.cpu.dcache.ReadReq_hits::.switch_cpus.data     23800040                       # number of ReadReq hits
system.cpu.dcache.ReadReq_hits::.switch_cpus_1.data    236170731                       # number of ReadReq hits
system.cpu.dcache.ReadReq_hits::total       497860312                       # number of ReadReq hits
system.cpu.dcache.ReadReq_misses::.cpu.data       189743                       # number of ReadReq misses
system.cpu.dcache.ReadReq_misses::.switch_cpus.data        15894                       # number of ReadReq misses
system.cpu.dcache.ReadReq_misses::.switch_cpus_1.data      6435874                       # number of ReadReq misses
system.cpu.dcache.ReadReq_misses::total       6641511                       # number of ReadReq misses
system.cpu.dcache.ReadReq_miss_latency::.switch_cpus.data    168046500                       # number of ReadReq miss cycles
system.cpu.dcache.ReadReq_miss_latency::.switch_cpus_1.data 427408771000                       # number of ReadReq miss cycles
system.cpu.dcache.ReadReq_miss_latency::total 427576817500                       # number of ReadReq miss cycles
system.cpu.dcache.ReadReq_accesses::.cpu.data    238079284                       # number of ReadReq accesses(hits+misses)
system.cpu.dcache.ReadReq_accesses::.switch_cpus.data     23815934                       # number of ReadReq accesses(hits+misses)
system.cpu.dcache.ReadReq_accesses::.switch_cpus_1.data    242606605                       # number of ReadReq accesses(hits+misses)
system.cpu.dcache.ReadReq_accesses::total    504501823                       # number of ReadReq accesses(hits+misses)
system.cpu.dcache.ReadReq_miss_rate::.cpu.data     0.000797                       # miss rate for ReadReq accesses
system.cpu.dcache.ReadReq_miss_rate::.switch_cpus.data     0.000667                       # miss rate for ReadReq accesses
system.cpu.dcache.ReadReq_miss_rate::.switch_cpus_1.data     0.026528                       # miss rate for ReadReq accesses
system.cpu.dcache.ReadReq_miss_rate::total     0.013164                       # miss rate for ReadReq accesses
system.cpu.dcache.ReadReq_avg_miss_latency::.switch_cpus.data 10572.952057                       # average ReadReq miss latency
system.cpu.dcache.ReadReq_avg_miss_latency::.switch_cpus_1.data 66410.369594                       # average ReadReq miss latency
system.cpu.dcache.ReadReq_avg_miss_latency::total 64379.448818                       # average ReadReq miss latency
system.cpu.dcache.ReadReq_mshr_hits::.switch_cpus_1.data      5348057                       # number of ReadReq MSHR hits
system.cpu.dcache.ReadReq_mshr_hits::total      5348057                       # number of ReadReq MSHR hits
system.cpu.dcache.ReadReq_mshr_misses::.switch_cpus.data        15894                       # number of ReadReq MSHR misses
system.cpu.dcache.ReadReq_mshr_misses::.switch_cpus_1.data      1087817                       # number of ReadReq MSHR misses
system.cpu.dcache.ReadReq_mshr_misses::total      1103711                       # number of ReadReq MSHR misses
system.cpu.dcache.ReadReq_mshr_miss_latency::.switch_cpus.data    160099500                       # number of ReadReq MSHR miss cycles
system.cpu.dcache.ReadReq_mshr_miss_latency::.switch_cpus_1.data  85780974500                       # number of ReadReq MSHR miss cycles
system.cpu.dcache.ReadReq_mshr_miss_latency::total  85941074000                       # number of ReadReq MSHR miss cycles
system.cpu.dcache.ReadReq_mshr_miss_rate::.switch_cpus.data     0.000667                       # mshr miss rate for ReadReq accesses
system.cpu.dcache.ReadReq_mshr_miss_rate::.switch_cpus_1.data     0.004484                       # mshr miss rate for ReadReq accesses
system.cpu.dcache.ReadReq_mshr_miss_rate::total     0.002188                       # mshr miss rate for ReadReq accesses
system.cpu.dcache.ReadReq_avg_mshr_miss_latency::.switch_cpus.data 10072.952057                       # average ReadReq mshr miss latency
system.cpu.dcache.ReadReq_avg_mshr_miss_latency::.switch_cpus_1.data 78856.070920                       # average ReadReq mshr miss latency
system.cpu.dcache.ReadReq_avg_mshr_miss_latency::total 77865.559010                       # average ReadReq mshr miss latency
system.cpu.dcache.WriteReq_hits::.cpu.data    186544031                       # number of WriteReq hits
system.cpu.dcache.WriteReq_hits::.switch_cpus.data     18750994                       # number of WriteReq hits
system.cpu.dcache.WriteReq_hits::.switch_cpus_1.data    116321810                       # number of WriteReq hits
system.cpu.dcache.WriteReq_hits::total      321616835                       # number of WriteReq hits
system.cpu.dcache.WriteReq_misses::.cpu.data       151686                       # number of WriteReq misses
system.cpu.dcache.WriteReq_misses::.switch_cpus.data        12222                       # number of WriteReq misses
system.cpu.dcache.WriteReq_misses::.switch_cpus_1.data       217685                       # number of WriteReq misses
system.cpu.dcache.WriteReq_misses::total       381593                       # number of WriteReq misses
system.cpu.dcache.WriteReq_miss_latency::.switch_cpus.data    904618500                       # number of WriteReq miss cycles
system.cpu.dcache.WriteReq_miss_latency::.switch_cpus_1.data  15488238134                       # number of WriteReq miss cycles
system.cpu.dcache.WriteReq_miss_latency::total  16392856634                       # number of WriteReq miss cycles
system.cpu.dcache.WriteReq_accesses::.cpu.data    186695717                       # number of WriteReq accesses(hits+misses)
system.cpu.dcache.WriteReq_accesses::.switch_cpus.data     18763216                       # number of WriteReq accesses(hits+misses)
system.cpu.dcache.WriteReq_accesses::.switch_cpus_1.data    116539495                       # number of WriteReq accesses(hits+misses)
system.cpu.dcache.WriteReq_accesses::total    321998428                       # number of WriteReq accesses(hits+misses)
system.cpu.dcache.WriteReq_miss_rate::.cpu.data     0.000812                       # miss rate for WriteReq accesses
system.cpu.dcache.WriteReq_miss_rate::.switch_cpus.data     0.000651                       # miss rate for WriteReq accesses
system.cpu.dcache.WriteReq_miss_rate::.switch_cpus_1.data     0.001868                       # miss rate for WriteReq accesses
system.cpu.dcache.WriteReq_miss_rate::total     0.001185                       # miss rate for WriteReq accesses
system.cpu.dcache.WriteReq_avg_miss_latency::.switch_cpus.data 74015.586647                       # average WriteReq miss latency
system.cpu.dcache.WriteReq_avg_miss_latency::.switch_cpus_1.data 71149.772074                       # average WriteReq miss latency
system.cpu.dcache.WriteReq_avg_miss_latency::total 42959.007723                       # average WriteReq miss latency
system.cpu.dcache.WriteReq_mshr_hits::.switch_cpus_1.data         4031                       # number of WriteReq MSHR hits
system.cpu.dcache.WriteReq_mshr_hits::total         4031                       # number of WriteReq MSHR hits
system.cpu.dcache.WriteReq_mshr_misses::.switch_cpus.data        12222                       # number of WriteReq MSHR misses
system.cpu.dcache.WriteReq_mshr_misses::.switch_cpus_1.data       213654                       # number of WriteReq MSHR misses
system.cpu.dcache.WriteReq_mshr_misses::total       225876                       # number of WriteReq MSHR misses
system.cpu.dcache.WriteReq_mshr_miss_latency::.switch_cpus.data    898507500                       # number of WriteReq MSHR miss cycles
system.cpu.dcache.WriteReq_mshr_miss_latency::.switch_cpus_1.data  15106327138                       # number of WriteReq MSHR miss cycles
system.cpu.dcache.WriteReq_mshr_miss_latency::total  16004834638                       # number of WriteReq MSHR miss cycles
system.cpu.dcache.WriteReq_mshr_miss_rate::.switch_cpus.data     0.000651                       # mshr miss rate for WriteReq accesses
system.cpu.dcache.WriteReq_mshr_miss_rate::.switch_cpus_1.data     0.001833                       # mshr miss rate for WriteReq accesses
system.cpu.dcache.WriteReq_mshr_miss_rate::total     0.000701                       # mshr miss rate for WriteReq accesses
system.cpu.dcache.WriteReq_avg_mshr_miss_latency::.switch_cpus.data 73515.586647                       # average WriteReq mshr miss latency
system.cpu.dcache.WriteReq_avg_mshr_miss_latency::.switch_cpus_1.data 70704.630562                       # average WriteReq mshr miss latency
system.cpu.dcache.WriteReq_avg_mshr_miss_latency::total 70856.729524                       # average WriteReq mshr miss latency
system.cpu.dcache.SoftPFReq_hits::.switch_cpus_1.data       180503                       # number of SoftPFReq hits
system.cpu.dcache.SoftPFReq_hits::total        180503                       # number of SoftPFReq hits
system.cpu.dcache.SoftPFReq_misses::.switch_cpus_1.data          650                       # number of SoftPFReq misses
system.cpu.dcache.SoftPFReq_misses::total          650                       # number of SoftPFReq misses
system.cpu.dcache.SoftPFReq_accesses::.switch_cpus_1.data       181153                       # number of SoftPFReq accesses(hits+misses)
system.cpu.dcache.SoftPFReq_accesses::total       181153                       # number of SoftPFReq accesses(hits+misses)
system.cpu.dcache.SoftPFReq_miss_rate::.switch_cpus_1.data     0.003588                       # miss rate for SoftPFReq accesses
system.cpu.dcache.SoftPFReq_miss_rate::total     0.003588                       # miss rate for SoftPFReq accesses
system.cpu.dcache.SoftPFReq_mshr_misses::.switch_cpus_1.data          379                       # number of SoftPFReq MSHR misses
system.cpu.dcache.SoftPFReq_mshr_misses::total          379                       # number of SoftPFReq MSHR misses
system.cpu.dcache.SoftPFReq_mshr_miss_latency::.switch_cpus_1.data     15768000                       # number of SoftPFReq MSHR miss cycles
system.cpu.dcache.SoftPFReq_mshr_miss_latency::total     15768000                       # number of SoftPFReq MSHR miss cycles
system.cpu.dcache.SoftPFReq_mshr_miss_rate::.switch_cpus_1.data     0.002092                       # mshr miss rate for SoftPFReq accesses
system.cpu.dcache.SoftPFReq_mshr_miss_rate::total     0.002092                       # mshr miss rate for SoftPFReq accesses
system.cpu.dcache.SoftPFReq_avg_mshr_miss_latency::.switch_cpus_1.data 41604.221636                       # average SoftPFReq mshr miss latency
system.cpu.dcache.SoftPFReq_avg_mshr_miss_latency::total 41604.221636                       # average SoftPFReq mshr miss latency
system.cpu.dcache.power_state.pwrStateResidencyTicks::UNDEFINED 1528383173500                       # Cumulative time (in ticks) in various power states
system.cpu.dcache.tags.tagsinuse           511.995869                       # Cycle average of tags in use
system.cpu.dcache.tags.total_refs           821329124                       # Total number of references to valid blocks.
system.cpu.dcache.tags.sampled_refs           1667754                       # Sample count of references to valid blocks.
system.cpu.dcache.tags.avg_refs            492.476183                       # Average number of references to valid blocks.
system.cpu.dcache.tags.warmup_cycle              1500                       # Cycle when the warmup percentage was hit.
system.cpu.dcache.tags.occ_blocks::.cpu.data   389.435761                       # Average occupied blocks per requestor
system.cpu.dcache.tags.occ_blocks::.switch_cpus.data    24.650803                       # Average occupied blocks per requestor
system.cpu.dcache.tags.occ_blocks::.switch_cpus_1.data    97.909306                       # Average occupied blocks per requestor
system.cpu.dcache.tags.occ_percent::.cpu.data     0.760617                       # Average percentage of cache occupancy
system.cpu.dcache.tags.occ_percent::.switch_cpus.data     0.048146                       # Average percentage of cache occupancy
system.cpu.dcache.tags.occ_percent::.switch_cpus_1.data     0.191229                       # Average percentage of cache occupancy
system.cpu.dcache.tags.occ_percent::total     0.999992                       # Average percentage of cache occupancy
system.cpu.dcache.tags.occ_task_id_blocks::1024          512                       # Occupied blocks per task id
system.cpu.dcache.tags.age_task_id_blocks_1024::0            2                       # Occupied blocks per task id
system.cpu.dcache.tags.age_task_id_blocks_1024::1           24                       # Occupied blocks per task id
system.cpu.dcache.tags.age_task_id_blocks_1024::2          143                       # Occupied blocks per task id
system.cpu.dcache.tags.age_task_id_blocks_1024::3          183                       # Occupied blocks per task id
system.cpu.dcache.tags.age_task_id_blocks_1024::4          160                       # Occupied blocks per task id
system.cpu.dcache.tags.occ_task_id_percent::1024            1                       # Percentage of cache occupancy per task id
system.cpu.dcache.tags.tag_accesses        3308393370                       # Number of tag accesses
system.cpu.dcache.tags.data_accesses       3308393370                       # Number of data accesses
system.cpu.dcache.tags.cache_friendly               0                       # Number of cache friendly accesses
system.cpu.dcache.tags.cache_averse         821329124                       # Number of cache averse accesses
system.cpu.dcache.tags.cache_friendly_victims            0                       # Number of cache friendly victims
system.cpu.dcache.tags.cache_averse_victims      1667754                       # Number of cache averse victims
system.cpu.dcache.tags.OPT_hits                     0                       # Number of OPT hits
system.cpu.dcache.tags.OPT_misses                   0                       # Number of OPT misses
system.cpu.dcache.tags.OPT_nan              826681404                       # Number of OPT nan
system.cpu.dcache.tags.power_state.pwrStateResidencyTicks::UNDEFINED 1528383173500                       # Cumulative time (in ticks) in various power states
system.cpu.power_state.numTransitions               2                       # Number of power state transitions
system.cpu.power_state.pwrStateResidencyTicks::ON 1135600018000                       # Cumulative time (in ticks) in various power states
system.cpu.power_state.pwrStateResidencyTicks::OFF 392783155500                       # Cumulative time (in ticks) in various power states

---------- End Simulation Statistics   ----------
