
---------- Begin Simulation Statistics ----------
final_tick                               1587822525000                       # Number of ticks from beginning of simulation (restored from checkpoints and never reset)
host_inst_rate                                 176922                       # Simulator instruction rate (inst/s)
host_mem_usage                                 921644                       # Number of bytes of host memory used
host_op_rate                                   342289                       # Simulator op (including micro ops) rate (op/s)
host_seconds                                 11869.65                       # Real time elapsed on the host
host_tick_rate                               27638912                       # Simulator tick rate (ticks/s)
sim_freq                                 1000000000000                       # Frequency of simulated ticks
sim_insts                                  2100000005                       # Number of instructions simulated
sim_ops                                    4062846009                       # Number of ops (including micro ops) simulated
sim_seconds                                  0.328064                       # Number of seconds simulated
sim_ticks                                328064177000                       # Number of ticks simulated
system.cpu.committedInsts                           0                       # Number of instructions committed
system.cpu.committedOps                             0                       # Number of ops (including micro ops) committed
system.cpu.dtb.rdAccesses                           0                       # TLB accesses on read requests
system.cpu.dtb.rdMisses                             0                       # TLB misses on read requests
system.cpu.dtb.wrAccesses                           0                       # TLB accesses on write requests
system.cpu.dtb.wrMisses                             0                       # TLB misses on write requests
system.cpu.idle_fraction                            0                       # Percentage of idle cycles
system.cpu.itb.rdAccesses                           0                       # TLB accesses on read requests
system.cpu.itb.rdMisses                             0                       # TLB misses on read requests
system.cpu.itb.wrAccesses                           0                       # TLB accesses on write requests
system.cpu.itb.wrMisses                             0                       # TLB misses on write requests
system.cpu.not_idle_fraction                        1                       # Percentage of non-idle cycles
system.cpu.numCycles                                0                       # number of cpu cycles simulated
system.cpu.numWorkItemsCompleted                    0                       # number of work items this cpu completed
system.cpu.numWorkItemsStarted                      0                       # number of work items this cpu started
system.cpu.num_busy_cycles                          0                       # Number of busy cycles
system.cpu.num_conditional_control_insts            0                       # number of instructions that are conditional controls
system.cpu.num_fp_alu_accesses                      0                       # Number of float alu accesses
system.cpu.num_fp_insts                             0                       # number of float instructions
system.cpu.num_fp_register_reads                    0                       # number of times the floating registers were read
system.cpu.num_fp_register_writes                   0                       # number of times the floating registers were written
system.cpu.num_func_calls                           0                       # number of times a function call or return occured
system.cpu.num_idle_cycles                          0                       # Number of idle cycles
system.cpu.num_int_alu_accesses                     0                       # Number of integer alu accesses
system.cpu.num_int_insts                            0                       # number of integer instructions
system.cpu.num_int_register_reads                   0                       # number of times the integer registers were read
system.cpu.num_int_register_writes                  0                       # number of times the integer registers were written
system.cpu.num_load_insts                           0                       # Number of load instructions
system.cpu.num_mem_refs                             0                       # number of memory refs
system.cpu.num_store_insts                          0                       # Number of store instructions
system.cpu.num_vec_alu_accesses                     0                       # Number of vector alu accesses
system.cpu.num_vec_insts                            0                       # number of vector instructions
system.cpu.num_vec_register_reads                   0                       # number of times the vector registers were read
system.cpu.num_vec_register_writes                  0                       # number of times the vector registers were written
system.cpu.op_class::No_OpClass                     0                       # Class of executed instruction
system.cpu.op_class::IntAlu                         0                       # Class of executed instruction
system.cpu.op_class::IntMult                        0                       # Class of executed instruction
system.cpu.op_class::IntDiv                         0                       # Class of executed instruction
system.cpu.op_class::FloatAdd                       0                       # Class of executed instruction
system.cpu.op_class::FloatCmp                       0                       # Class of executed instruction
system.cpu.op_class::FloatCvt                       0                       # Class of executed instruction
system.cpu.op_class::FloatMult                      0                       # Class of executed instruction
system.cpu.op_class::FloatMultAcc                   0                       # Class of executed instruction
system.cpu.op_class::FloatDiv                       0                       # Class of executed instruction
system.cpu.op_class::FloatMisc                      0                       # Class of executed instruction
system.cpu.op_class::FloatSqrt                      0                       # Class of executed instruction
system.cpu.op_class::SimdAdd                        0                       # Class of executed instruction
system.cpu.op_class::SimdAddAcc                     0                       # Class of executed instruction
system.cpu.op_class::SimdAlu                        0                       # Class of executed instruction
system.cpu.op_class::SimdCmp                        0                       # Class of executed instruction
system.cpu.op_class::SimdCvt                        0                       # Class of executed instruction
system.cpu.op_class::SimdMisc                       0                       # Class of executed instruction
system.cpu.op_class::SimdMult                       0                       # Class of executed instruction
system.cpu.op_class::SimdMultAcc                    0                       # Class of executed instruction
system.cpu.op_class::SimdShift                      0                       # Class of executed instruction
system.cpu.op_class::SimdShiftAcc                   0                       # Class of executed instruction
system.cpu.op_class::SimdDiv                        0                       # Class of executed instruction
system.cpu.op_class::SimdSqrt                       0                       # Class of executed instruction
system.cpu.op_class::SimdFloatAdd                   0                       # Class of executed instruction
system.cpu.op_class::SimdFloatAlu                   0                       # Class of executed instruction
system.cpu.op_class::SimdFloatCmp                   0                       # Class of executed instruction
system.cpu.op_class::SimdFloatCvt                   0                       # Class of executed instruction
system.cpu.op_class::SimdFloatDiv                   0                       # Class of executed instruction
system.cpu.op_class::SimdFloatMisc                  0                       # Class of executed instruction
system.cpu.op_class::SimdFloatMult                  0                       # Class of executed instruction
system.cpu.op_class::SimdFloatMultAcc               0                       # Class of executed instruction
system.cpu.op_class::SimdFloatSqrt                  0                       # Class of executed instruction
system.cpu.op_class::SimdReduceAdd                  0                       # Class of executed instruction
system.cpu.op_class::SimdReduceAlu                  0                       # Class of executed instruction
system.cpu.op_class::SimdReduceCmp                  0                       # Class of executed instruction
system.cpu.op_class::SimdFloatReduceAdd             0                       # Class of executed instruction
system.cpu.op_class::SimdFloatReduceCmp             0                       # Class of executed instruction
system.cpu.op_class::SimdAes                        0                       # Class of executed instruction
system.cpu.op_class::SimdAesMix                     0                       # Class of executed instruction
system.cpu.op_class::SimdSha1Hash                   0                       # Class of executed instruction
system.cpu.op_class::SimdSha1Hash2                  0                       # Class of executed instruction
system.cpu.op_class::SimdSha256Hash                 0                       # Class of executed instruction
system.cpu.op_class::SimdSha256Hash2                0                       # Class of executed instruction
system.cpu.op_class::SimdShaSigma2                  0                       # Class of executed instruction
system.cpu.op_class::SimdShaSigma3                  0                       # Class of executed instruction
system.cpu.op_class::SimdPredAlu                    0                       # Class of executed instruction
system.cpu.op_class::MemRead                        0                       # Class of executed instruction
system.cpu.op_class::MemWrite                       0                       # Class of executed instruction
system.cpu.op_class::FloatMemRead                   0                       # Class of executed instruction
system.cpu.op_class::FloatMemWrite                  0                       # Class of executed instruction
system.cpu.op_class::IprAccess                      0                       # Class of executed instruction
system.cpu.op_class::InstPrefetch                   0                       # Class of executed instruction
system.cpu.op_class::total                          0                       # Class of executed instruction
system.cpu.workload.numSyscalls                   513                       # Number of system calls
system.membus.snoop_filter.hit_multi_requests            0                       # Number of requests hitting in the snoop filter with multiple (>1) holders of the requested data.
system.membus.snoop_filter.hit_multi_snoops            0                       # Number of snoops hitting in the snoop filter with multiple (>1) holders of the requested data.
system.membus.snoop_filter.hit_single_requests      1056095                       # Number of requests hitting in the snoop filter with a single holder of the requested data.
system.membus.snoop_filter.hit_single_snoops            0                       # Number of snoops hitting in the snoop filter with a single holder of the requested data.
system.membus.snoop_filter.tot_requests       2112832                       # Total number of requests made to the snoop filter.
system.membus.snoop_filter.tot_snoops               0                       # Total number of snoops made to the snoop filter.
system.switch_cpus.committedInsts                   0                       # Number of instructions committed
system.switch_cpus.committedOps                     0                       # Number of ops (including micro ops) committed
system.switch_cpus.dtb.rdAccesses                   0                       # TLB accesses on read requests
system.switch_cpus.dtb.rdMisses                     0                       # TLB misses on read requests
system.switch_cpus.dtb.wrAccesses                   0                       # TLB accesses on write requests
system.switch_cpus.dtb.wrMisses                     0                       # TLB misses on write requests
system.switch_cpus.idle_fraction                    0                       # Percentage of idle cycles
system.switch_cpus.itb.rdAccesses                   0                       # TLB accesses on read requests
system.switch_cpus.itb.rdMisses                     0                       # TLB misses on read requests
system.switch_cpus.itb.wrAccesses                   0                       # TLB accesses on write requests
system.switch_cpus.itb.wrMisses                     0                       # TLB misses on write requests
system.switch_cpus.not_idle_fraction                1                       # Percentage of non-idle cycles
system.switch_cpus.numCycles                        0                       # number of cpu cycles simulated
system.switch_cpus.numWorkItemsCompleted            0                       # number of work items this cpu completed
system.switch_cpus.numWorkItemsStarted              0                       # number of work items this cpu started
system.switch_cpus.num_busy_cycles                  0                       # Number of busy cycles
system.switch_cpus.num_conditional_control_insts            0                       # number of instructions that are conditional controls
system.switch_cpus.num_fp_alu_accesses              0                       # Number of float alu accesses
system.switch_cpus.num_fp_insts                     0                       # number of float instructions
system.switch_cpus.num_fp_register_reads            0                       # number of times the floating registers were read
system.switch_cpus.num_fp_register_writes            0                       # number of times the floating registers were written
system.switch_cpus.num_func_calls                   0                       # number of times a function call or return occured
system.switch_cpus.num_idle_cycles                  0                       # Number of idle cycles
system.switch_cpus.num_int_alu_accesses             0                       # Number of integer alu accesses
system.switch_cpus.num_int_insts                    0                       # number of integer instructions
system.switch_cpus.num_int_register_reads            0                       # number of times the integer registers were read
system.switch_cpus.num_int_register_writes            0                       # number of times the integer registers were written
system.switch_cpus.num_load_insts                   0                       # Number of load instructions
system.switch_cpus.num_mem_refs                     0                       # number of memory refs
system.switch_cpus.num_store_insts                  0                       # Number of store instructions
system.switch_cpus.num_vec_alu_accesses             0                       # Number of vector alu accesses
system.switch_cpus.num_vec_insts                    0                       # number of vector instructions
system.switch_cpus.num_vec_register_reads            0                       # number of times the vector registers were read
system.switch_cpus.num_vec_register_writes            0                       # number of times the vector registers were written
system.switch_cpus.op_class::No_OpClass             0                       # Class of executed instruction
system.switch_cpus.op_class::IntAlu                 0                       # Class of executed instruction
system.switch_cpus.op_class::IntMult                0                       # Class of executed instruction
system.switch_cpus.op_class::IntDiv                 0                       # Class of executed instruction
system.switch_cpus.op_class::FloatAdd               0                       # Class of executed instruction
system.switch_cpus.op_class::FloatCmp               0                       # Class of executed instruction
system.switch_cpus.op_class::FloatCvt               0                       # Class of executed instruction
system.switch_cpus.op_class::FloatMult              0                       # Class of executed instruction
system.switch_cpus.op_class::FloatMultAcc            0                       # Class of executed instruction
system.switch_cpus.op_class::FloatDiv               0                       # Class of executed instruction
system.switch_cpus.op_class::FloatMisc              0                       # Class of executed instruction
system.switch_cpus.op_class::FloatSqrt              0                       # Class of executed instruction
system.switch_cpus.op_class::SimdAdd                0                       # Class of executed instruction
system.switch_cpus.op_class::SimdAddAcc             0                       # Class of executed instruction
system.switch_cpus.op_class::SimdAlu                0                       # Class of executed instruction
system.switch_cpus.op_class::SimdCmp                0                       # Class of executed instruction
system.switch_cpus.op_class::SimdCvt                0                       # Class of executed instruction
system.switch_cpus.op_class::SimdMisc               0                       # Class of executed instruction
system.switch_cpus.op_class::SimdMult               0                       # Class of executed instruction
system.switch_cpus.op_class::SimdMultAcc            0                       # Class of executed instruction
system.switch_cpus.op_class::SimdShift              0                       # Class of executed instruction
system.switch_cpus.op_class::SimdShiftAcc            0                       # Class of executed instruction
system.switch_cpus.op_class::SimdDiv                0                       # Class of executed instruction
system.switch_cpus.op_class::SimdSqrt               0                       # Class of executed instruction
system.switch_cpus.op_class::SimdFloatAdd            0                       # Class of executed instruction
system.switch_cpus.op_class::SimdFloatAlu            0                       # Class of executed instruction
system.switch_cpus.op_class::SimdFloatCmp            0                       # Class of executed instruction
system.switch_cpus.op_class::SimdFloatCvt            0                       # Class of executed instruction
system.switch_cpus.op_class::SimdFloatDiv            0                       # Class of executed instruction
system.switch_cpus.op_class::SimdFloatMisc            0                       # Class of executed instruction
system.switch_cpus.op_class::SimdFloatMult            0                       # Class of executed instruction
system.switch_cpus.op_class::SimdFloatMultAcc            0                       # Class of executed instruction
system.switch_cpus.op_class::SimdFloatSqrt            0                       # Class of executed instruction
system.switch_cpus.op_class::SimdReduceAdd            0                       # Class of executed instruction
system.switch_cpus.op_class::SimdReduceAlu            0                       # Class of executed instruction
system.switch_cpus.op_class::SimdReduceCmp            0                       # Class of executed instruction
system.switch_cpus.op_class::SimdFloatReduceAdd            0                       # Class of executed instruction
system.switch_cpus.op_class::SimdFloatReduceCmp            0                       # Class of executed instruction
system.switch_cpus.op_class::SimdAes                0                       # Class of executed instruction
system.switch_cpus.op_class::SimdAesMix             0                       # Class of executed instruction
system.switch_cpus.op_class::SimdSha1Hash            0                       # Class of executed instruction
system.switch_cpus.op_class::SimdSha1Hash2            0                       # Class of executed instruction
system.switch_cpus.op_class::SimdSha256Hash            0                       # Class of executed instruction
system.switch_cpus.op_class::SimdSha256Hash2            0                       # Class of executed instruction
system.switch_cpus.op_class::SimdShaSigma2            0                       # Class of executed instruction
system.switch_cpus.op_class::SimdShaSigma3            0                       # Class of executed instruction
system.switch_cpus.op_class::SimdPredAlu            0                       # Class of executed instruction
system.switch_cpus.op_class::MemRead                0                       # Class of executed instruction
system.switch_cpus.op_class::MemWrite               0                       # Class of executed instruction
system.switch_cpus.op_class::FloatMemRead            0                       # Class of executed instruction
system.switch_cpus.op_class::FloatMemWrite            0                       # Class of executed instruction
system.switch_cpus.op_class::IprAccess              0                       # Class of executed instruction
system.switch_cpus.op_class::InstPrefetch            0                       # Class of executed instruction
system.switch_cpus.op_class::total                  0                       # Class of executed instruction
system.switch_cpus_1.branchPred.BTBCorrect            0                       # Number of correct BTB predictions (this stat may not work properly.
system.switch_cpus_1.branchPred.BTBHitPct          nan                       # BTB Hit Percentage
system.switch_cpus_1.branchPred.BTBHits             0                       # Number of BTB hits
system.switch_cpus_1.branchPred.BTBLookups            0                       # Number of BTB lookups
system.switch_cpus_1.branchPred.RASInCorrect          102                       # Number of incorrect RAS predictions.
system.switch_cpus_1.branchPred.condIncorrect     10867694                       # Number of conditional branches incorrect
system.switch_cpus_1.branchPred.condPredicted    243782631                       # Number of conditional branches predicted
system.switch_cpus_1.branchPred.indirectHits    109781227                       # Number of indirect target hits.
system.switch_cpus_1.branchPred.indirectLookups    138012639                       # Number of indirect predictor lookups.
system.switch_cpus_1.branchPred.indirectMisses     28231412                       # Number of indirect misses.
system.switch_cpus_1.branchPred.lookups     272625366                       # Number of BP lookups
system.switch_cpus_1.branchPred.usedRAS      13812930                       # Number of times the RAS was used to get a target.
system.switch_cpus_1.branchPredindirectMispredicted      6940314                       # Number of mispredicted indirect branches.
system.switch_cpus_1.cc_regfile_reads      1034495959                       # number of cc regfile reads
system.switch_cpus_1.cc_regfile_writes      596795805                       # number of cc regfile writes
system.switch_cpus_1.commit.amos                    0                       # Number of atomic instructions committed
system.switch_cpus_1.commit.branchMispredicts     10898636                       # The number of times a branch was mispredicted
system.switch_cpus_1.commit.branches        186028581                       # Number of branches committed
system.switch_cpus_1.commit.bw_lim_events    154022039                       # number cycles where commit BW limit reached
system.switch_cpus_1.commit.commitNonSpecStalls          786                       # The number of times commit has been forced to stall to communicate backwards
system.switch_cpus_1.commit.commitSquashedInsts    508922546                       # The number of squashed insts skipped by commit
system.switch_cpus_1.commit.committedInsts   1000000003                       # Number of instructions committed
system.switch_cpus_1.commit.committedOps   1912327399                       # Number of ops (including micro ops) committed
system.switch_cpus_1.commit.committed_per_cycle::samples    584696569                       # Number of insts commited each cycle
system.switch_cpus_1.commit.committed_per_cycle::mean     3.270632                       # Number of insts commited each cycle
system.switch_cpus_1.commit.committed_per_cycle::stdev     3.272653                       # Number of insts commited each cycle
system.switch_cpus_1.commit.committed_per_cycle::underflows            0      0.00%      0.00% # Number of insts commited each cycle
system.switch_cpus_1.commit.committed_per_cycle::0    189988310     32.49%     32.49% # Number of insts commited each cycle
system.switch_cpus_1.commit.committed_per_cycle::1     70943640     12.13%     44.63% # Number of insts commited each cycle
system.switch_cpus_1.commit.committed_per_cycle::2     49391374      8.45%     53.07% # Number of insts commited each cycle
system.switch_cpus_1.commit.committed_per_cycle::3     51740935      8.85%     61.92% # Number of insts commited each cycle
system.switch_cpus_1.commit.committed_per_cycle::4     25674392      4.39%     66.31% # Number of insts commited each cycle
system.switch_cpus_1.commit.committed_per_cycle::5     17571960      3.01%     69.32% # Number of insts commited each cycle
system.switch_cpus_1.commit.committed_per_cycle::6     12902907      2.21%     71.53% # Number of insts commited each cycle
system.switch_cpus_1.commit.committed_per_cycle::7     12461012      2.13%     73.66% # Number of insts commited each cycle
system.switch_cpus_1.commit.committed_per_cycle::8    154022039     26.34%    100.00% # Number of insts commited each cycle
system.switch_cpus_1.commit.committed_per_cycle::overflows            0      0.00%    100.00% # Number of insts commited each cycle
system.switch_cpus_1.commit.committed_per_cycle::min_value            0                       # Number of insts commited each cycle
system.switch_cpus_1.commit.committed_per_cycle::max_value            8                       # Number of insts commited each cycle
system.switch_cpus_1.commit.committed_per_cycle::total    584696569                       # Number of insts commited each cycle
system.switch_cpus_1.commit.fp_insts        342322887                       # Number of committed floating point instructions.
system.switch_cpus_1.commit.function_calls      9052798                       # Number of function calls committed.
system.switch_cpus_1.commit.int_insts      1643818287                       # Number of committed integer instructions.
system.switch_cpus_1.commit.loads           234177025                       # Number of loads committed
system.switch_cpus_1.commit.membars               140                       # Number of memory barriers committed
system.switch_cpus_1.commit.op_class_0::No_OpClass      5981876      0.31%      0.31% # Class of committed instruction
system.switch_cpus_1.commit.op_class_0::IntAlu   1347117924     70.44%     70.76% # Class of committed instruction
system.switch_cpus_1.commit.op_class_0::IntMult      1217295      0.06%     70.82% # Class of committed instruction
system.switch_cpus_1.commit.op_class_0::IntDiv      6666547      0.35%     71.17% # Class of committed instruction
system.switch_cpus_1.commit.op_class_0::FloatAdd     46878078      2.45%     73.62% # Class of committed instruction
system.switch_cpus_1.commit.op_class_0::FloatCmp            0      0.00%     73.62% # Class of committed instruction
system.switch_cpus_1.commit.op_class_0::FloatCvt          112      0.00%     73.62% # Class of committed instruction
system.switch_cpus_1.commit.op_class_0::FloatMult            0      0.00%     73.62% # Class of committed instruction
system.switch_cpus_1.commit.op_class_0::FloatMultAcc            0      0.00%     73.62% # Class of committed instruction
system.switch_cpus_1.commit.op_class_0::FloatDiv            0      0.00%     73.62% # Class of committed instruction
system.switch_cpus_1.commit.op_class_0::FloatMisc            0      0.00%     73.62% # Class of committed instruction
system.switch_cpus_1.commit.op_class_0::FloatSqrt            0      0.00%     73.62% # Class of committed instruction
system.switch_cpus_1.commit.op_class_0::SimdAdd            0      0.00%     73.62% # Class of committed instruction
system.switch_cpus_1.commit.op_class_0::SimdAddAcc            0      0.00%     73.62% # Class of committed instruction
system.switch_cpus_1.commit.op_class_0::SimdAlu     22286532      1.17%     74.79% # Class of committed instruction
system.switch_cpus_1.commit.op_class_0::SimdCmp       848244      0.04%     74.83% # Class of committed instruction
system.switch_cpus_1.commit.op_class_0::SimdCvt      4491778      0.23%     75.06% # Class of committed instruction
system.switch_cpus_1.commit.op_class_0::SimdMisc     12502897      0.65%     75.72% # Class of committed instruction
system.switch_cpus_1.commit.op_class_0::SimdMult            0      0.00%     75.72% # Class of committed instruction
system.switch_cpus_1.commit.op_class_0::SimdMultAcc            0      0.00%     75.72% # Class of committed instruction
system.switch_cpus_1.commit.op_class_0::SimdShift            0      0.00%     75.72% # Class of committed instruction
system.switch_cpus_1.commit.op_class_0::SimdShiftAcc            0      0.00%     75.72% # Class of committed instruction
system.switch_cpus_1.commit.op_class_0::SimdDiv            0      0.00%     75.72% # Class of committed instruction
system.switch_cpus_1.commit.op_class_0::SimdSqrt            0      0.00%     75.72% # Class of committed instruction
system.switch_cpus_1.commit.op_class_0::SimdFloatAdd     49159879      2.57%     78.29% # Class of committed instruction
system.switch_cpus_1.commit.op_class_0::SimdFloatAlu            0      0.00%     78.29% # Class of committed instruction
system.switch_cpus_1.commit.op_class_0::SimdFloatCmp            0      0.00%     78.29% # Class of committed instruction
system.switch_cpus_1.commit.op_class_0::SimdFloatCvt     45731328      2.39%     80.68% # Class of committed instruction
system.switch_cpus_1.commit.op_class_0::SimdFloatDiv      1922135      0.10%     80.78% # Class of committed instruction
system.switch_cpus_1.commit.op_class_0::SimdFloatMisc            0      0.00%     80.78% # Class of committed instruction
system.switch_cpus_1.commit.op_class_0::SimdFloatMult     22831089      1.19%     81.98% # Class of committed instruction
system.switch_cpus_1.commit.op_class_0::SimdFloatMultAcc            0      0.00%     81.98% # Class of committed instruction
system.switch_cpus_1.commit.op_class_0::SimdFloatSqrt            0      0.00%     81.98% # Class of committed instruction
system.switch_cpus_1.commit.op_class_0::SimdReduceAdd            0      0.00%     81.98% # Class of committed instruction
system.switch_cpus_1.commit.op_class_0::SimdReduceAlu            0      0.00%     81.98% # Class of committed instruction
system.switch_cpus_1.commit.op_class_0::SimdReduceCmp            0      0.00%     81.98% # Class of committed instruction
system.switch_cpus_1.commit.op_class_0::SimdFloatReduceAdd            0      0.00%     81.98% # Class of committed instruction
system.switch_cpus_1.commit.op_class_0::SimdFloatReduceCmp            0      0.00%     81.98% # Class of committed instruction
system.switch_cpus_1.commit.op_class_0::SimdAes            0      0.00%     81.98% # Class of committed instruction
system.switch_cpus_1.commit.op_class_0::SimdAesMix            0      0.00%     81.98% # Class of committed instruction
system.switch_cpus_1.commit.op_class_0::SimdSha1Hash            0      0.00%     81.98% # Class of committed instruction
system.switch_cpus_1.commit.op_class_0::SimdSha1Hash2            0      0.00%     81.98% # Class of committed instruction
system.switch_cpus_1.commit.op_class_0::SimdSha256Hash            0      0.00%     81.98% # Class of committed instruction
system.switch_cpus_1.commit.op_class_0::SimdSha256Hash2            0      0.00%     81.98% # Class of committed instruction
system.switch_cpus_1.commit.op_class_0::SimdShaSigma2            0      0.00%     81.98% # Class of committed instruction
system.switch_cpus_1.commit.op_class_0::SimdShaSigma3            0      0.00%     81.98% # Class of committed instruction
system.switch_cpus_1.commit.op_class_0::SimdPredAlu            0      0.00%     81.98% # Class of committed instruction
system.switch_cpus_1.commit.op_class_0::MemRead    174201768      9.11%     91.08% # Class of committed instruction
system.switch_cpus_1.commit.op_class_0::MemWrite    100138650      5.24%     96.32% # Class of committed instruction
system.switch_cpus_1.commit.op_class_0::FloatMemRead     59975257      3.14%     99.46% # Class of committed instruction
system.switch_cpus_1.commit.op_class_0::FloatMemWrite     10376010      0.54%    100.00% # Class of committed instruction
system.switch_cpus_1.commit.op_class_0::IprAccess            0      0.00%    100.00% # Class of committed instruction
system.switch_cpus_1.commit.op_class_0::InstPrefetch            0      0.00%    100.00% # Class of committed instruction
system.switch_cpus_1.commit.op_class_0::total   1912327399                       # Class of committed instruction
system.switch_cpus_1.commit.refs            344691685                       # Number of memory references committed
system.switch_cpus_1.commit.swp_count               0                       # Number of s/w prefetches committed
system.switch_cpus_1.commit.vec_insts               0                       # Number of committed Vector instructions.
system.switch_cpus_1.committedInsts        1000000003                       # Number of Instructions Simulated
system.switch_cpus_1.committedOps          1912327399                       # Number of Ops (including micro ops) Simulated
system.switch_cpus_1.cpi                     0.656128                       # CPI: Cycles Per Instruction
system.switch_cpus_1.cpi_total               0.656128                       # CPI: Total CPI of All Threads
system.switch_cpus_1.decode.BlockedCycles    228672634                       # Number of cycles decode is blocked
system.switch_cpus_1.decode.DecodedInsts   2612741470                       # Number of instructions handled by decode
system.switch_cpus_1.decode.IdleCycles       49303909                       # Number of cycles decode is idle
system.switch_cpus_1.decode.RunCycles       313402020                       # Number of cycles decode is running
system.switch_cpus_1.decode.SquashCycles     10915679                       # Number of cycles decode is squashing
system.switch_cpus_1.decode.UnblockCycles     53628061                       # Number of cycles decode is unblocking
system.switch_cpus_1.dtb.rdAccesses         265570807                       # TLB accesses on read requests
system.switch_cpus_1.dtb.rdMisses              706199                       # TLB misses on read requests
system.switch_cpus_1.dtb.wrAccesses         121778346                       # TLB accesses on write requests
system.switch_cpus_1.dtb.wrMisses              525282                       # TLB misses on write requests
system.switch_cpus_1.fetch.Branches         272625366                       # Number of branches that fetch encountered
system.switch_cpus_1.fetch.CacheLines       205888947                       # Number of cache lines fetched
system.switch_cpus_1.fetch.Cycles           634079348                       # Number of cycles fetch has run and was not squashing or blocked
system.switch_cpus_1.fetch.IcacheSquashes        64097                       # Number of outstanding Icache misses that were squashed
system.switch_cpus_1.fetch.IcacheWaitRetryStallCycles          399                       # Number of stall cycles due to full MSHR
system.switch_cpus_1.fetch.Insts           1471594530                       # Number of instructions fetch has processed
system.switch_cpus_1.fetch.ItlbSquashes            46                       # Number of outstanding ITLB misses that were squashed
system.switch_cpus_1.fetch.MiscStallCycles        26203                       # Number of cycles fetch has spent waiting on interrupts, or bad addresses, or out of MSHRs
system.switch_cpus_1.fetch.PendingTrapStallCycles       330984                       # Number of stall cycles due to pending traps
system.switch_cpus_1.fetch.SquashCycles      21831358                       # Number of cycles fetch has spent squashing
system.switch_cpus_1.fetch.TlbCycles             2737                       # Number of cycles fetch has spent waiting for tlb
system.switch_cpus_1.fetch.branchRate        0.415506                       # Number of branch fetches per cycle
system.switch_cpus_1.fetch.icacheStallCycles     10566963                       # Number of cycles fetch is stalled on an Icache miss
system.switch_cpus_1.fetch.predictedBranches    123594157                       # Number of branches that fetch has predicted taken
system.switch_cpus_1.fetch.rate              2.242846                       # Number of inst fetches per cycle
system.switch_cpus_1.fetch.rateDist::samples    655922313                       # Number of instructions fetched each cycle (Total)
system.switch_cpus_1.fetch.rateDist::mean     4.265850                       # Number of instructions fetched each cycle (Total)
system.switch_cpus_1.fetch.rateDist::stdev     3.460396                       # Number of instructions fetched each cycle (Total)
system.switch_cpus_1.fetch.rateDist::underflows            0      0.00%      0.00% # Number of instructions fetched each cycle (Total)
system.switch_cpus_1.fetch.rateDist::0      197440620     30.10%     30.10% # Number of instructions fetched each cycle (Total)
system.switch_cpus_1.fetch.rateDist::1       31389560      4.79%     34.89% # Number of instructions fetched each cycle (Total)
system.switch_cpus_1.fetch.rateDist::2       28860955      4.40%     39.29% # Number of instructions fetched each cycle (Total)
system.switch_cpus_1.fetch.rateDist::3       35508796      5.41%     44.70% # Number of instructions fetched each cycle (Total)
system.switch_cpus_1.fetch.rateDist::4       26029769      3.97%     48.67% # Number of instructions fetched each cycle (Total)
system.switch_cpus_1.fetch.rateDist::5       38236238      5.83%     54.50% # Number of instructions fetched each cycle (Total)
system.switch_cpus_1.fetch.rateDist::6       29104158      4.44%     58.94% # Number of instructions fetched each cycle (Total)
system.switch_cpus_1.fetch.rateDist::7       22314600      3.40%     62.34% # Number of instructions fetched each cycle (Total)
system.switch_cpus_1.fetch.rateDist::8      247037617     37.66%    100.00% # Number of instructions fetched each cycle (Total)
system.switch_cpus_1.fetch.rateDist::overflows            0      0.00%    100.00% # Number of instructions fetched each cycle (Total)
system.switch_cpus_1.fetch.rateDist::min_value            0                       # Number of instructions fetched each cycle (Total)
system.switch_cpus_1.fetch.rateDist::max_value            8                       # Number of instructions fetched each cycle (Total)
system.switch_cpus_1.fetch.rateDist::total    655922313                       # Number of instructions fetched each cycle (Total)
system.switch_cpus_1.fp_regfile_reads       608412198                       # number of floating regfile reads
system.switch_cpus_1.fp_regfile_writes      359033598                       # number of floating regfile writes
system.switch_cpus_1.idleCycles                206041                       # Total number of cycles that the CPU has spent unscheduled due to idling
system.switch_cpus_1.iew.branchMispredicts     14880306                       # Number of branch mispredicts detected at execute
system.switch_cpus_1.iew.exec_branches      206141132                       # Number of branches executed
system.switch_cpus_1.iew.exec_nop                   0                       # number of nop insts executed
system.switch_cpus_1.iew.exec_rate           3.339683                       # Inst execution rate
system.switch_cpus_1.iew.exec_refs          387907627                       # number of memory reference insts executed
system.switch_cpus_1.iew.exec_stores        121713460                       # Number of stores executed
system.switch_cpus_1.iew.exec_swp                   0                       # number of swp insts executed
system.switch_cpus_1.iew.iewBlockCycles      99894465                       # Number of cycles IEW is blocking
system.switch_cpus_1.iew.iewDispLoadInsts    294478983                       # Number of dispatched load instructions
system.switch_cpus_1.iew.iewDispNonSpecInsts       169203                       # Number of dispatched non-speculative instructions
system.switch_cpus_1.iew.iewDispSquashedInsts       285973                       # Number of squashed instructions skipped by dispatch
system.switch_cpus_1.iew.iewDispStoreInsts    135825553                       # Number of dispatched store instructions
system.switch_cpus_1.iew.iewDispatchedInsts   2421353609                       # Number of instructions dispatched to IQ
system.switch_cpus_1.iew.iewExecLoadInsts    266194167                       # Number of load instructions executed
system.switch_cpus_1.iew.iewExecSquashedInsts     23361398                       # Number of squashed instructions skipped in execute
system.switch_cpus_1.iew.iewExecutedInsts   2191260654                       # Number of executed instructions
system.switch_cpus_1.iew.iewIQFullEvents       336863                       # Number of times the IQ has become full, causing a stall
system.switch_cpus_1.iew.iewIdleCycles              0                       # Number of cycles IEW is idle
system.switch_cpus_1.iew.iewLSQFullEvents       565319                       # Number of times the LSQ has become full, causing a stall
system.switch_cpus_1.iew.iewSquashCycles     10915679                       # Number of cycles IEW is squashing
system.switch_cpus_1.iew.iewUnblockCycles      1198804                       # Number of cycles IEW is unblocking
system.switch_cpus_1.iew.lsq.thread0.blockedLoads            0                       # Number of blocked loads due to partial load-store forwarding
system.switch_cpus_1.iew.lsq.thread0.cacheBlocked       186605                       # Number of times an access to memory failed due to the cache being blocked
system.switch_cpus_1.iew.lsq.thread0.forwLoads     31677188                       # Number of loads that had data forwarded from stores
system.switch_cpus_1.iew.lsq.thread0.ignoredResponses        26824                       # Number of memory responses ignored because the instruction is squashed
system.switch_cpus_1.iew.lsq.thread0.invAddrLoads            0                       # Number of loads ignored due to an invalid address
system.switch_cpus_1.iew.lsq.thread0.invAddrSwpfs            0                       # Number of software prefetches ignored due to an invalid address
system.switch_cpus_1.iew.lsq.thread0.memOrderViolation        20349                       # Number of memory ordering violations
system.switch_cpus_1.iew.lsq.thread0.rescheduledLoads       104524                       # Number of loads that were rescheduled
system.switch_cpus_1.iew.lsq.thread0.squashedLoads     60301950                       # Number of loads squashed
system.switch_cpus_1.iew.lsq.thread0.squashedStores     25310889                       # Number of stores squashed
system.switch_cpus_1.iew.memOrderViolationEvents        20349                       # Number of memory order violations
system.switch_cpus_1.iew.predictedNotTakenIncorrect     13277486                       # Number of branches that were predicted not taken incorrectly
system.switch_cpus_1.iew.predictedTakenIncorrect      1602820                       # Number of branches that were predicted taken incorrectly
system.switch_cpus_1.iew.wb_consumers      2761309583                       # num instructions consuming a value
system.switch_cpus_1.iew.wb_count          2182891874                       # cumulative count of insts written-back
system.switch_cpus_1.iew.wb_fanout           0.593060                       # average fanout of values written-back
system.switch_cpus_1.iew.wb_producers      1637621993                       # num instructions producing a value
system.switch_cpus_1.iew.wb_rate             3.326928                       # insts written-back per cycle
system.switch_cpus_1.iew.wb_sent           2189245339                       # cumulative count of insts sent to commit
system.switch_cpus_1.int_regfile_reads     2686448937                       # number of integer regfile reads
system.switch_cpus_1.int_regfile_writes    1480083143                       # number of integer regfile writes
system.switch_cpus_1.ipc                     1.524092                       # IPC: Instructions Per Cycle
system.switch_cpus_1.ipc_total               1.524092                       # IPC: Total IPC of All Threads
system.switch_cpus_1.iq.FU_type_0::No_OpClass     11487314      0.52%      0.52% # Type of FU issued
system.switch_cpus_1.iq.FU_type_0::IntAlu   1561508919     70.51%     71.03% # Type of FU issued
system.switch_cpus_1.iq.FU_type_0::IntMult      1262915      0.06%     71.08% # Type of FU issued
system.switch_cpus_1.iq.FU_type_0::IntDiv      6836863      0.31%     71.39% # Type of FU issued
system.switch_cpus_1.iq.FU_type_0::FloatAdd     58847281      2.66%     74.05% # Type of FU issued
system.switch_cpus_1.iq.FU_type_0::FloatCmp            0      0.00%     74.05% # Type of FU issued
system.switch_cpus_1.iq.FU_type_0::FloatCvt          494      0.00%     74.05% # Type of FU issued
system.switch_cpus_1.iq.FU_type_0::FloatMult            0      0.00%     74.05% # Type of FU issued
system.switch_cpus_1.iq.FU_type_0::FloatMultAcc            0      0.00%     74.05% # Type of FU issued
system.switch_cpus_1.iq.FU_type_0::FloatDiv            0      0.00%     74.05% # Type of FU issued
system.switch_cpus_1.iq.FU_type_0::FloatMisc            0      0.00%     74.05% # Type of FU issued
system.switch_cpus_1.iq.FU_type_0::FloatSqrt            0      0.00%     74.05% # Type of FU issued
system.switch_cpus_1.iq.FU_type_0::SimdAdd            0      0.00%     74.05% # Type of FU issued
system.switch_cpus_1.iq.FU_type_0::SimdAddAcc            0      0.00%     74.05% # Type of FU issued
system.switch_cpus_1.iq.FU_type_0::SimdAlu     26506227      1.20%     75.25% # Type of FU issued
system.switch_cpus_1.iq.FU_type_0::SimdCmp       937353      0.04%     75.29% # Type of FU issued
system.switch_cpus_1.iq.FU_type_0::SimdCvt      5291862      0.24%     75.53% # Type of FU issued
system.switch_cpus_1.iq.FU_type_0::SimdMisc     14244730      0.64%     76.17% # Type of FU issued
system.switch_cpus_1.iq.FU_type_0::SimdMult            0      0.00%     76.17% # Type of FU issued
system.switch_cpus_1.iq.FU_type_0::SimdMultAcc            0      0.00%     76.17% # Type of FU issued
system.switch_cpus_1.iq.FU_type_0::SimdShift            0      0.00%     76.17% # Type of FU issued
system.switch_cpus_1.iq.FU_type_0::SimdShiftAcc            0      0.00%     76.17% # Type of FU issued
system.switch_cpus_1.iq.FU_type_0::SimdDiv            0      0.00%     76.17% # Type of FU issued
system.switch_cpus_1.iq.FU_type_0::SimdSqrt            0      0.00%     76.17% # Type of FU issued
system.switch_cpus_1.iq.FU_type_0::SimdFloatAdd     55139799      2.49%     78.66% # Type of FU issued
system.switch_cpus_1.iq.FU_type_0::SimdFloatAlu            0      0.00%     78.66% # Type of FU issued
system.switch_cpus_1.iq.FU_type_0::SimdFloatCmp            0      0.00%     78.66% # Type of FU issued
system.switch_cpus_1.iq.FU_type_0::SimdFloatCvt     50042240      2.26%     80.92% # Type of FU issued
system.switch_cpus_1.iq.FU_type_0::SimdFloatDiv      1922706      0.09%     81.01% # Type of FU issued
system.switch_cpus_1.iq.FU_type_0::SimdFloatMisc            0      0.00%     81.01% # Type of FU issued
system.switch_cpus_1.iq.FU_type_0::SimdFloatMult     24670026      1.11%     82.12% # Type of FU issued
system.switch_cpus_1.iq.FU_type_0::SimdFloatMultAcc            0      0.00%     82.12% # Type of FU issued
system.switch_cpus_1.iq.FU_type_0::SimdFloatSqrt            0      0.00%     82.12% # Type of FU issued
system.switch_cpus_1.iq.FU_type_0::SimdReduceAdd            0      0.00%     82.12% # Type of FU issued
system.switch_cpus_1.iq.FU_type_0::SimdReduceAlu            0      0.00%     82.12% # Type of FU issued
system.switch_cpus_1.iq.FU_type_0::SimdReduceCmp            0      0.00%     82.12% # Type of FU issued
system.switch_cpus_1.iq.FU_type_0::SimdFloatReduceAdd            0      0.00%     82.12% # Type of FU issued
system.switch_cpus_1.iq.FU_type_0::SimdFloatReduceCmp            0      0.00%     82.12% # Type of FU issued
system.switch_cpus_1.iq.FU_type_0::SimdAes            0      0.00%     82.12% # Type of FU issued
system.switch_cpus_1.iq.FU_type_0::SimdAesMix            0      0.00%     82.12% # Type of FU issued
system.switch_cpus_1.iq.FU_type_0::SimdSha1Hash            0      0.00%     82.12% # Type of FU issued
system.switch_cpus_1.iq.FU_type_0::SimdSha1Hash2            0      0.00%     82.12% # Type of FU issued
system.switch_cpus_1.iq.FU_type_0::SimdSha256Hash            0      0.00%     82.12% # Type of FU issued
system.switch_cpus_1.iq.FU_type_0::SimdSha256Hash2            0      0.00%     82.12% # Type of FU issued
system.switch_cpus_1.iq.FU_type_0::SimdShaSigma2            0      0.00%     82.12% # Type of FU issued
system.switch_cpus_1.iq.FU_type_0::SimdShaSigma3            0      0.00%     82.12% # Type of FU issued
system.switch_cpus_1.iq.FU_type_0::SimdPredAlu            0      0.00%     82.12% # Type of FU issued
system.switch_cpus_1.iq.FU_type_0::MemRead    198193784      8.95%     91.07% # Type of FU issued
system.switch_cpus_1.iq.FU_type_0::MemWrite    112336194      5.07%     96.14% # Type of FU issued
system.switch_cpus_1.iq.FU_type_0::FloatMemRead     73034115      3.30%     99.44% # Type of FU issued
system.switch_cpus_1.iq.FU_type_0::FloatMemWrite     12359238      0.56%    100.00% # Type of FU issued
system.switch_cpus_1.iq.FU_type_0::IprAccess            0      0.00%    100.00% # Type of FU issued
system.switch_cpus_1.iq.FU_type_0::InstPrefetch            0      0.00%    100.00% # Type of FU issued
system.switch_cpus_1.iq.FU_type_0::total   2214622060                       # Type of FU issued
system.switch_cpus_1.iq.fp_alu_accesses     408324951                       # Number of floating point alu accesses
system.switch_cpus_1.iq.fp_inst_queue_reads    814352931                       # Number of floating instruction queue reads
system.switch_cpus_1.iq.fp_inst_queue_wakeup_accesses    402479621                       # Number of floating instruction queue wakeup accesses
system.switch_cpus_1.iq.fp_inst_queue_writes    578657169                       # Number of floating instruction queue writes
system.switch_cpus_1.iq.fu_busy_cnt          61685751                       # FU busy when requested
system.switch_cpus_1.iq.fu_busy_rate         0.027854                       # FU busy rate (busy events/executed inst)
system.switch_cpus_1.iq.fu_full::No_OpClass            0      0.00%      0.00% # attempts to use FU when none available
system.switch_cpus_1.iq.fu_full::IntAlu      54616203     88.54%     88.54% # attempts to use FU when none available
system.switch_cpus_1.iq.fu_full::IntMult            0      0.00%     88.54% # attempts to use FU when none available
system.switch_cpus_1.iq.fu_full::IntDiv             0      0.00%     88.54% # attempts to use FU when none available
system.switch_cpus_1.iq.fu_full::FloatAdd            0      0.00%     88.54% # attempts to use FU when none available
system.switch_cpus_1.iq.fu_full::FloatCmp            0      0.00%     88.54% # attempts to use FU when none available
system.switch_cpus_1.iq.fu_full::FloatCvt            0      0.00%     88.54% # attempts to use FU when none available
system.switch_cpus_1.iq.fu_full::FloatMult            0      0.00%     88.54% # attempts to use FU when none available
system.switch_cpus_1.iq.fu_full::FloatMultAcc            0      0.00%     88.54% # attempts to use FU when none available
system.switch_cpus_1.iq.fu_full::FloatDiv            0      0.00%     88.54% # attempts to use FU when none available
system.switch_cpus_1.iq.fu_full::FloatMisc            0      0.00%     88.54% # attempts to use FU when none available
system.switch_cpus_1.iq.fu_full::FloatSqrt            0      0.00%     88.54% # attempts to use FU when none available
system.switch_cpus_1.iq.fu_full::SimdAdd            0      0.00%     88.54% # attempts to use FU when none available
system.switch_cpus_1.iq.fu_full::SimdAddAcc            0      0.00%     88.54% # attempts to use FU when none available
system.switch_cpus_1.iq.fu_full::SimdAlu       228471      0.37%     88.91% # attempts to use FU when none available
system.switch_cpus_1.iq.fu_full::SimdCmp        30523      0.05%     88.96% # attempts to use FU when none available
system.switch_cpus_1.iq.fu_full::SimdCvt       761567      1.23%     90.19% # attempts to use FU when none available
system.switch_cpus_1.iq.fu_full::SimdMisc       187446      0.30%     90.50% # attempts to use FU when none available
system.switch_cpus_1.iq.fu_full::SimdMult            0      0.00%     90.50% # attempts to use FU when none available
system.switch_cpus_1.iq.fu_full::SimdMultAcc            0      0.00%     90.50% # attempts to use FU when none available
system.switch_cpus_1.iq.fu_full::SimdShift            0      0.00%     90.50% # attempts to use FU when none available
system.switch_cpus_1.iq.fu_full::SimdShiftAcc            0      0.00%     90.50% # attempts to use FU when none available
system.switch_cpus_1.iq.fu_full::SimdDiv            0      0.00%     90.50% # attempts to use FU when none available
system.switch_cpus_1.iq.fu_full::SimdSqrt            0      0.00%     90.50% # attempts to use FU when none available
system.switch_cpus_1.iq.fu_full::SimdFloatAdd       173037      0.28%     90.78% # attempts to use FU when none available
system.switch_cpus_1.iq.fu_full::SimdFloatAlu            0      0.00%     90.78% # attempts to use FU when none available
system.switch_cpus_1.iq.fu_full::SimdFloatCmp            0      0.00%     90.78% # attempts to use FU when none available
system.switch_cpus_1.iq.fu_full::SimdFloatCvt       456075      0.74%     91.52% # attempts to use FU when none available
system.switch_cpus_1.iq.fu_full::SimdFloatDiv            0      0.00%     91.52% # attempts to use FU when none available
system.switch_cpus_1.iq.fu_full::SimdFloatMisc            0      0.00%     91.52% # attempts to use FU when none available
system.switch_cpus_1.iq.fu_full::SimdFloatMult       439420      0.71%     92.23% # attempts to use FU when none available
system.switch_cpus_1.iq.fu_full::SimdFloatMultAcc            0      0.00%     92.23% # attempts to use FU when none available
system.switch_cpus_1.iq.fu_full::SimdFloatSqrt            0      0.00%     92.23% # attempts to use FU when none available
system.switch_cpus_1.iq.fu_full::SimdReduceAdd            0      0.00%     92.23% # attempts to use FU when none available
system.switch_cpus_1.iq.fu_full::SimdReduceAlu            0      0.00%     92.23% # attempts to use FU when none available
system.switch_cpus_1.iq.fu_full::SimdReduceCmp            0      0.00%     92.23% # attempts to use FU when none available
system.switch_cpus_1.iq.fu_full::SimdFloatReduceAdd            0      0.00%     92.23% # attempts to use FU when none available
system.switch_cpus_1.iq.fu_full::SimdFloatReduceCmp            0      0.00%     92.23% # attempts to use FU when none available
system.switch_cpus_1.iq.fu_full::SimdAes            0      0.00%     92.23% # attempts to use FU when none available
system.switch_cpus_1.iq.fu_full::SimdAesMix            0      0.00%     92.23% # attempts to use FU when none available
system.switch_cpus_1.iq.fu_full::SimdSha1Hash            0      0.00%     92.23% # attempts to use FU when none available
system.switch_cpus_1.iq.fu_full::SimdSha1Hash2            0      0.00%     92.23% # attempts to use FU when none available
system.switch_cpus_1.iq.fu_full::SimdSha256Hash            0      0.00%     92.23% # attempts to use FU when none available
system.switch_cpus_1.iq.fu_full::SimdSha256Hash2            0      0.00%     92.23% # attempts to use FU when none available
system.switch_cpus_1.iq.fu_full::SimdShaSigma2            0      0.00%     92.23% # attempts to use FU when none available
system.switch_cpus_1.iq.fu_full::SimdShaSigma3            0      0.00%     92.23% # attempts to use FU when none available
system.switch_cpus_1.iq.fu_full::SimdPredAlu            0      0.00%     92.23% # attempts to use FU when none available
system.switch_cpus_1.iq.fu_full::MemRead      2380834      3.86%     96.09% # attempts to use FU when none available
system.switch_cpus_1.iq.fu_full::MemWrite      1909867      3.10%     99.19% # attempts to use FU when none available
system.switch_cpus_1.iq.fu_full::FloatMemRead       230478      0.37%     99.56% # attempts to use FU when none available
system.switch_cpus_1.iq.fu_full::FloatMemWrite       271830      0.44%    100.00% # attempts to use FU when none available
system.switch_cpus_1.iq.fu_full::IprAccess            0      0.00%    100.00% # attempts to use FU when none available
system.switch_cpus_1.iq.fu_full::InstPrefetch            0      0.00%    100.00% # attempts to use FU when none available
system.switch_cpus_1.iq.int_alu_accesses   1856495546                       # Number of integer alu accesses
system.switch_cpus_1.iq.int_inst_queue_reads   4347260286                       # Number of integer instruction queue reads
system.switch_cpus_1.iq.int_inst_queue_wakeup_accesses   1780412253                       # Number of integer instruction queue wakeup accesses
system.switch_cpus_1.iq.int_inst_queue_writes   2351740170                       # Number of integer instruction queue writes
system.switch_cpus_1.iq.iqInstsAdded       2420999845                       # Number of instructions added to the IQ (excludes non-spec)
system.switch_cpus_1.iq.iqInstsIssued      2214622060                       # Number of instructions issued
system.switch_cpus_1.iq.iqNonSpecInstsAdded       353764                       # Number of non-speculative instructions added to the IQ
system.switch_cpus_1.iq.iqSquashedInstsExamined    509026164                       # Number of squashed instructions iterated over during squash; mainly for profiling
system.switch_cpus_1.iq.iqSquashedInstsIssued     14761041                       # Number of squashed instructions issued
system.switch_cpus_1.iq.iqSquashedNonSpecRemoved       352978                       # Number of squashed non-spec instructions that were removed
system.switch_cpus_1.iq.iqSquashedOperandsExamined    725040188                       # Number of squashed operands that are examined and possibly removed from graph
system.switch_cpus_1.iq.issued_per_cycle::samples    655922313                       # Number of insts issued each cycle
system.switch_cpus_1.iq.issued_per_cycle::mean     3.376348                       # Number of insts issued each cycle
system.switch_cpus_1.iq.issued_per_cycle::stdev     2.959821                       # Number of insts issued each cycle
system.switch_cpus_1.iq.issued_per_cycle::underflows            0      0.00%      0.00% # Number of insts issued each cycle
system.switch_cpus_1.iq.issued_per_cycle::0    218863969     33.37%     33.37% # Number of insts issued each cycle
system.switch_cpus_1.iq.issued_per_cycle::1     28209797      4.30%     37.67% # Number of insts issued each cycle
system.switch_cpus_1.iq.issued_per_cycle::2     39562588      6.03%     43.70% # Number of insts issued each cycle
system.switch_cpus_1.iq.issued_per_cycle::3     46506836      7.09%     50.79% # Number of insts issued each cycle
system.switch_cpus_1.iq.issued_per_cycle::4     55374044      8.44%     59.23% # Number of insts issued each cycle
system.switch_cpus_1.iq.issued_per_cycle::5     61296669      9.35%     68.58% # Number of insts issued each cycle
system.switch_cpus_1.iq.issued_per_cycle::6     72706134     11.08%     79.66% # Number of insts issued each cycle
system.switch_cpus_1.iq.issued_per_cycle::7     63667954      9.71%     89.37% # Number of insts issued each cycle
system.switch_cpus_1.iq.issued_per_cycle::8     69734322     10.63%    100.00% # Number of insts issued each cycle
system.switch_cpus_1.iq.issued_per_cycle::overflows            0      0.00%    100.00% # Number of insts issued each cycle
system.switch_cpus_1.iq.issued_per_cycle::min_value            0                       # Number of insts issued each cycle
system.switch_cpus_1.iq.issued_per_cycle::max_value            8                       # Number of insts issued each cycle
system.switch_cpus_1.iq.issued_per_cycle::total    655922313                       # Number of insts issued each cycle
system.switch_cpus_1.iq.rate                 3.375288                       # Inst issue rate
system.switch_cpus_1.iq.vec_alu_accesses            0                       # Number of vector alu accesses
system.switch_cpus_1.iq.vec_inst_queue_reads            0                       # Number of vector instruction queue reads
system.switch_cpus_1.iq.vec_inst_queue_wakeup_accesses            0                       # Number of vector instruction queue wakeup accesses
system.switch_cpus_1.iq.vec_inst_queue_writes            0                       # Number of vector instruction queue writes
system.switch_cpus_1.itb.rdAccesses                 0                       # TLB accesses on read requests
system.switch_cpus_1.itb.rdMisses                   0                       # TLB misses on read requests
system.switch_cpus_1.itb.wrAccesses         205941508                       # TLB accesses on write requests
system.switch_cpus_1.itb.wrMisses               52984                       # TLB misses on write requests
system.switch_cpus_1.memDep0.conflictingLoads     24136177                       # Number of conflicting loads.
system.switch_cpus_1.memDep0.conflictingStores      6697450                       # Number of conflicting stores.
system.switch_cpus_1.memDep0.insertedLoads    294478983                       # Number of loads inserted to the mem dependence unit.
system.switch_cpus_1.memDep0.insertedStores    135825553                       # Number of stores inserted to the mem dependence unit.
system.switch_cpus_1.misc_regfile_reads     874211052                       # number of misc regfile reads
system.switch_cpus_1.misc_regfile_writes           63                       # number of misc regfile writes
system.switch_cpus_1.numCycles              656128354                       # number of cpu cycles simulated
system.switch_cpus_1.numWorkItemsCompleted            0                       # number of work items this cpu completed
system.switch_cpus_1.numWorkItemsStarted            0                       # number of work items this cpu started
system.switch_cpus_1.rename.BlockCycles     132620960                       # Number of cycles rename is blocking
system.switch_cpus_1.rename.CommittedMaps   2152708135                       # Number of HB maps that are committed
system.switch_cpus_1.rename.IQFullEvents     33413258                       # Number of times rename has blocked due to IQ full
system.switch_cpus_1.rename.IdleCycles       71312027                       # Number of cycles rename is idle
system.switch_cpus_1.rename.LQFullEvents     23670392                       # Number of times rename has blocked due to LQ full
system.switch_cpus_1.rename.ROBFullEvents      3412036                       # Number of times rename has blocked due to ROB full
system.switch_cpus_1.rename.RenameLookups   6209414918                       # Number of register rename lookups that rename has made
system.switch_cpus_1.rename.RenamedInsts   2543576457                       # Number of instructions processed by rename
system.switch_cpus_1.rename.RenamedOperands   2830637050                       # Number of destination operands rename has renamed
system.switch_cpus_1.rename.RunCycles       343083340                       # Number of cycles rename is running
system.switch_cpus_1.rename.SQFullEvents     26279467                       # Number of times rename has blocked due to SQ full
system.switch_cpus_1.rename.SquashCycles     10915679                       # Number of cycles rename is squashing
system.switch_cpus_1.rename.UnblockCycles     97580667                       # Number of cycles rename is unblocking
system.switch_cpus_1.rename.UndoneMaps      677928830                       # Number of HB maps that are undone due to squashing
system.switch_cpus_1.rename.fp_rename_lookups    746073990                       # Number of floating rename lookups
system.switch_cpus_1.rename.int_rename_lookups   3211687022                       # Number of integer rename lookups
system.switch_cpus_1.rename.serializeStallCycles       409631                       # count of cycles rename stalled for serializing inst
system.switch_cpus_1.rename.serializingInsts        95634                       # count of serializing insts renamed
system.switch_cpus_1.rename.skidInsts       167650993                       # count of insts added to the skid buffer
system.switch_cpus_1.rename.tempSerializingInsts       147352                       # count of temporary serializing insts renamed
system.switch_cpus_1.rob.rob_reads         2851884136                       # The number of ROB reads
system.switch_cpus_1.rob.rob_writes        4914522928                       # The number of ROB writes
system.switch_cpus_1.timesIdled                  1656                       # Number of times that the entire CPU went into an idle state and unscheduled itself
system.tol2bus.snoop_filter.hit_multi_requests          146                       # Number of requests hitting in the snoop filter with multiple (>1) holders of the requested data.
system.tol2bus.snoop_filter.hit_multi_snoops            9                       # Number of snoops hitting in the snoop filter with multiple (>1) holders of the requested data.
system.tol2bus.snoop_filter.hit_single_requests      1388979                       # Number of requests hitting in the snoop filter with a single holder of the requested data.
system.tol2bus.snoop_filter.hit_single_snoops        68817                       # Number of snoops hitting in the snoop filter with a single holder of the requested data.
system.tol2bus.snoop_filter.tot_requests      2768260                       # Total number of requests made to the snoop filter.
system.tol2bus.snoop_filter.tot_snoops          68826                       # Total number of snoops made to the snoop filter.
system.tol3bus.snoop_filter.hit_multi_requests            0                       # Number of requests hitting in the snoop filter with multiple (>1) holders of the requested data.
system.tol3bus.snoop_filter.hit_multi_snoops            0                       # Number of snoops hitting in the snoop filter with multiple (>1) holders of the requested data.
system.tol3bus.snoop_filter.hit_single_requests      1178705                       # Number of requests hitting in the snoop filter with a single holder of the requested data.
system.tol3bus.snoop_filter.hit_single_snoops       517987                       # Number of snoops hitting in the snoop filter with a single holder of the requested data.
system.tol3bus.snoop_filter.tot_requests      2357286                       # Total number of requests made to the snoop filter.
system.tol3bus.snoop_filter.tot_snoops         517987                       # Total number of snoops made to the snoop filter.
system.membus.trans_dist::ReadResp             905630                       # Transaction distribution
system.membus.trans_dist::WritebackDirty       320413                       # Transaction distribution
system.membus.trans_dist::CleanEvict           735678                       # Transaction distribution
system.membus.trans_dist::UpgradeReq                1                       # Transaction distribution
system.membus.trans_dist::ReadExReq            151110                       # Transaction distribution
system.membus.trans_dist::ReadExResp           151110                       # Transaction distribution
system.membus.trans_dist::ReadSharedReq        905630                       # Transaction distribution
system.membus.pkt_count_system.l3.mem_side::system.mem_ctrls.port      3169572                       # Packet count per connected master and slave (bytes)
system.membus.pkt_count_system.l3.mem_side::total      3169572                       # Packet count per connected master and slave (bytes)
system.membus.pkt_count::total                3169572                       # Packet count per connected master and slave (bytes)
system.membus.pkt_size_system.l3.mem_side::system.mem_ctrls.port     88137792                       # Cumulative packet size per connected master and slave (bytes)
system.membus.pkt_size_system.l3.mem_side::total     88137792                       # Cumulative packet size per connected master and slave (bytes)
system.membus.pkt_size::total                88137792                       # Cumulative packet size per connected master and slave (bytes)
system.membus.snoops                                0                       # Total snoops (count)
system.membus.snoopTraffic                          0                       # Total snoop traffic (bytes)
system.membus.snoop_fanout::samples           1056741                       # Request fanout histogram
system.membus.snoop_fanout::mean                    0                       # Request fanout histogram
system.membus.snoop_fanout::stdev                   0                       # Request fanout histogram
system.membus.snoop_fanout::underflows              0      0.00%      0.00% # Request fanout histogram
system.membus.snoop_fanout::0                 1056741    100.00%    100.00% # Request fanout histogram
system.membus.snoop_fanout::1                       0      0.00%    100.00% # Request fanout histogram
system.membus.snoop_fanout::overflows               0      0.00%    100.00% # Request fanout histogram
system.membus.snoop_fanout::min_value               0                       # Request fanout histogram
system.membus.snoop_fanout::max_value               0                       # Request fanout histogram
system.membus.snoop_fanout::total             1056741                       # Request fanout histogram
system.membus.reqLayer2.occupancy          3654063000                       # Layer occupancy (ticks)
system.membus.reqLayer2.utilization               1.1                       # Layer utilization (%)
system.membus.respLayer1.occupancy         5596973000                       # Layer occupancy (ticks)
system.membus.respLayer1.utilization              1.7                       # Layer utilization (%)
system.membus.power_state.pwrStateResidencyTicks::UNDEFINED 1587822525000                       # Cumulative time (in ticks) in various power states
system.switch_cpus_1.dtb.walker.power_state.pwrStateResidencyTicks::UNDEFINED 1587822525000                       # Cumulative time (in ticks) in various power states
system.switch_cpus_1.itb.walker.power_state.pwrStateResidencyTicks::UNDEFINED 1587822525000                       # Cumulative time (in ticks) in various power states
system.switch_cpus_1.power_state.pwrStateResidencyTicks::OFF 1587822525000                       # Cumulative time (in ticks) in various power states
system.switch_cpus.dtb.walker.power_state.pwrStateResidencyTicks::UNDEFINED 1587822525000                       # Cumulative time (in ticks) in various power states
system.switch_cpus.itb.walker.power_state.pwrStateResidencyTicks::UNDEFINED 1587822525000                       # Cumulative time (in ticks) in various power states
system.switch_cpus.power_state.numTransitions            1                       # Number of power state transitions
system.switch_cpus.power_state.pwrStateResidencyTicks::OFF 1587822525000                       # Cumulative time (in ticks) in various power states
system.tol2bus.trans_dist::ReadResp           1179370                       # Transaction distribution
system.tol2bus.trans_dist::WritebackDirty       806815                       # Transaction distribution
system.tol2bus.trans_dist::WritebackClean        88833                       # Transaction distribution
system.tol2bus.trans_dist::CleanEvict         2183864                       # Transaction distribution
system.tol2bus.trans_dist::UpgradeReq            9725                       # Transaction distribution
system.tol2bus.trans_dist::UpgradeResp           9725                       # Transaction distribution
system.tol2bus.trans_dist::ReadExReq           199899                       # Transaction distribution
system.tol2bus.trans_dist::ReadExResp          199899                       # Transaction distribution
system.tol2bus.trans_dist::ReadCleanReq         88836                       # Transaction distribution
system.tol2bus.trans_dist::ReadSharedReq      1090534                       # Transaction distribution
system.tol2bus.pkt_count_system.cpu.icache.mem_side::system.l2.cpu_side       266503                       # Packet count per connected master and slave (bytes)
system.tol2bus.pkt_count_system.cpu.dcache.mem_side::system.l2.cpu_side      3890749                       # Packet count per connected master and slave (bytes)
system.tol2bus.pkt_count::total               4157252                       # Packet count per connected master and slave (bytes)
system.tol2bus.pkt_size_system.cpu.icache.mem_side::system.l2.cpu_side     11370688                       # Cumulative packet size per connected master and slave (bytes)
system.tol2bus.pkt_size_system.cpu.dcache.mem_side::system.l2.cpu_side    109660608                       # Cumulative packet size per connected master and slave (bytes)
system.tol2bus.pkt_size::total              121031296                       # Cumulative packet size per connected master and slave (bytes)
system.tol2bus.snoops                         1700248                       # Total snoops (count)
system.tol2bus.snoopTraffic                  24563392                       # Total snoop traffic (bytes)
system.tol2bus.snoop_fanout::samples          3089240                       # Request fanout histogram
system.tol2bus.snoop_fanout::mean            0.022329                       # Request fanout histogram
system.tol2bus.snoop_fanout::stdev           0.147772                       # Request fanout histogram
system.tol2bus.snoop_fanout::underflows             0      0.00%      0.00% # Request fanout histogram
system.tol2bus.snoop_fanout::0                3020268     97.77%     97.77% # Request fanout histogram
system.tol2bus.snoop_fanout::1                  68963      2.23%    100.00% # Request fanout histogram
system.tol2bus.snoop_fanout::2                      9      0.00%    100.00% # Request fanout histogram
system.tol2bus.snoop_fanout::3                      0      0.00%    100.00% # Request fanout histogram
system.tol2bus.snoop_fanout::4                      0      0.00%    100.00% # Request fanout histogram
system.tol2bus.snoop_fanout::overflows              0      0.00%    100.00% # Request fanout histogram
system.tol2bus.snoop_fanout::min_value              0                       # Request fanout histogram
system.tol2bus.snoop_fanout::max_value              2                       # Request fanout histogram
system.tol2bus.snoop_fanout::total            3089240                       # Request fanout histogram
system.tol2bus.reqLayer0.occupancy         1895977000                       # Layer occupancy (ticks)
system.tol2bus.reqLayer0.utilization              0.6                       # Layer utilization (%)
system.tol2bus.respLayer1.occupancy        1940517489                       # Layer occupancy (ticks)
system.tol2bus.respLayer1.utilization             0.6                       # Layer utilization (%)
system.tol2bus.respLayer0.occupancy         133278451                       # Layer occupancy (ticks)
system.tol2bus.respLayer0.utilization             0.0                       # Layer utilization (%)
system.tol2bus.power_state.pwrStateResidencyTicks::UNDEFINED 1587822525000                       # Cumulative time (in ticks) in various power states
system.voltage_domain.voltage                       1                       # Voltage in Volts
system.clk_domain.clock                          1000                       # Clock period in ticks
system.l2.demand_hits::.switch_cpus_1.inst        85755                       # number of demand (read+write) hits
system.l2.demand_hits::.switch_cpus_1.data       114923                       # number of demand (read+write) hits
system.l2.demand_hits::total                   200678                       # number of demand (read+write) hits
system.l2.overall_hits::.switch_cpus_1.inst        85755                       # number of overall hits
system.l2.overall_hits::.switch_cpus_1.data       114923                       # number of overall hits
system.l2.overall_hits::total                  200678                       # number of overall hits
system.l2.demand_misses::.switch_cpus_1.inst         3079                       # number of demand (read+write) misses
system.l2.demand_misses::.switch_cpus_1.data      1175510                       # number of demand (read+write) misses
system.l2.demand_misses::total                1178589                       # number of demand (read+write) misses
system.l2.overall_misses::.switch_cpus_1.inst         3079                       # number of overall misses
system.l2.overall_misses::.switch_cpus_1.data      1175510                       # number of overall misses
system.l2.overall_misses::total               1178589                       # number of overall misses
system.l2.demand_miss_latency::.switch_cpus_1.inst    278643500                       # number of demand (read+write) miss cycles
system.l2.demand_miss_latency::.switch_cpus_1.data  98453541500                       # number of demand (read+write) miss cycles
system.l2.demand_miss_latency::total      98732185000                       # number of demand (read+write) miss cycles
system.l2.overall_miss_latency::.switch_cpus_1.inst    278643500                       # number of overall miss cycles
system.l2.overall_miss_latency::.switch_cpus_1.data  98453541500                       # number of overall miss cycles
system.l2.overall_miss_latency::total     98732185000                       # number of overall miss cycles
system.l2.demand_accesses::.switch_cpus_1.inst        88834                       # number of demand (read+write) accesses
system.l2.demand_accesses::.switch_cpus_1.data      1290433                       # number of demand (read+write) accesses
system.l2.demand_accesses::total              1379267                       # number of demand (read+write) accesses
system.l2.overall_accesses::.switch_cpus_1.inst        88834                       # number of overall (read+write) accesses
[...]
system.cpu.dcache.demand_miss_latency::total 438245968765                       # number of demand (read+write) miss cycles
system.cpu.dcache.overall_miss_latency::.switch_cpus.data   1082497000                       # number of overall miss cycles
system.cpu.dcache.overall_miss_latency::.switch_cpus_1.data 437163471765                       # number of overall miss cycles
system.cpu.dcache.overall_miss_latency::total 438245968765                       # number of overall miss cycles
system.cpu.dcache.demand_accesses::.cpu.data    398468352                       # number of demand (read+write) accesses
system.cpu.dcache.demand_accesses::.switch_cpus.data     39900079                       # number of demand (read+write) accesses
system.cpu.dcache.demand_accesses::.switch_cpus_1.data    343733265                       # number of demand (read+write) accesses
system.cpu.dcache.demand_accesses::total    782101696                       # number of demand (read+write) accesses
system.cpu.dcache.overall_accesses::.cpu.data    398468352                       # number of overall (read+write) accesses
system.cpu.dcache.overall_accesses::.switch_cpus.data     39900079                       # number of overall (read+write) accesses
system.cpu.dcache.overall_accesses::.switch_cpus_1.data    343733265                       # number of overall (read+write) accesses
system.cpu.dcache.overall_accesses::total    782101696                       # number of overall (read+write) accesses
system.cpu.dcache.demand_miss_rate::.cpu.data     0.000786                       # miss rate for demand accesses
system.cpu.dcache.demand_miss_rate::.switch_cpus.data     0.000715                       # miss rate for demand accesses
system.cpu.dcache.demand_miss_rate::.switch_cpus_1.data     0.019271                       # miss rate for demand accesses
system.cpu.dcache.demand_miss_rate::total     0.008907                       # miss rate for demand accesses
system.cpu.dcache.overall_miss_rate::.cpu.data     0.000786                       # miss rate for overall accesses
system.cpu.dcache.overall_miss_rate::.switch_cpus.data     0.000715                       # miss rate for overall accesses
system.cpu.dcache.overall_miss_rate::.switch_cpus_1.data     0.019271                       # miss rate for overall accesses
system.cpu.dcache.overall_miss_rate::total     0.008907                       # miss rate for overall accesses
system.cpu.dcache.demand_avg_miss_latency::.switch_cpus.data 37951.723171                       # average overall miss latency
system.cpu.dcache.demand_avg_miss_latency::.switch_cpus_1.data 65995.336730                       # average overall miss latency
system.cpu.dcache.demand_avg_miss_latency::total 62911.661563                       # average overall miss latency
system.cpu.dcache.overall_avg_miss_latency::.switch_cpus.data 37951.723171                       # average overall miss latency
system.cpu.dcache.overall_avg_miss_latency::.switch_cpus_1.data 65995.336730                       # average overall miss latency
system.cpu.dcache.overall_avg_miss_latency::total 62911.661563                       # average overall miss latency
system.cpu.dcache.blocked_cycles::no_mshrs      8977219                       # number of cycles access was blocked
system.cpu.dcache.blocked_cycles::no_targets         8227                       # number of cycles access was blocked
system.cpu.dcache.blocked::no_mshrs            213837                       # number of cycles access was blocked
system.cpu.dcache.blocked::no_targets              53                       # number of cycles access was blocked
system.cpu.dcache.avg_blocked_cycles::no_mshrs    41.981598                       # average number of cycles each access was blocked
system.cpu.dcache.avg_blocked_cycles::no_targets   155.226415                       # average number of cycles each access was blocked
system.cpu.dcache.writebacks::.writebacks       684934                       # number of writebacks
system.cpu.dcache.writebacks::total            684934                       # number of writebacks
system.cpu.dcache.demand_mshr_hits::.switch_cpus_1.data      5325389                       # number of demand (read+write) MSHR hits
system.cpu.dcache.demand_mshr_hits::total      5325389                       # number of demand (read+write) MSHR hits
system.cpu.dcache.overall_mshr_hits::.switch_cpus_1.data      5325389                       # number of overall MSHR hits
system.cpu.dcache.overall_mshr_hits::total      5325389                       # number of overall MSHR hits
system.cpu.dcache.demand_mshr_misses::.switch_cpus.data        28523                       # number of demand (read+write) MSHR misses
system.cpu.dcache.demand_mshr_misses::.switch_cpus_1.data      1298768                       # number of demand (read+write) MSHR misses
system.cpu.dcache.demand_mshr_misses::total      1327291                       # number of demand (read+write) MSHR misses
system.cpu.dcache.overall_mshr_misses::.switch_cpus.data        28523                       # number of overall MSHR misses
system.cpu.dcache.overall_mshr_misses::.switch_cpus_1.data      1298768                       # number of overall MSHR misses
system.cpu.dcache.overall_mshr_misses::total      1327291                       # number of overall MSHR misses
system.cpu.dcache.demand_mshr_miss_latency::.switch_cpus.data   1068235500                       # number of demand (read+write) MSHR miss cycles
system.cpu.dcache.demand_mshr_miss_latency::.switch_cpus_1.data 100495276267                       # number of demand (read+write) MSHR miss cycles
system.cpu.dcache.demand_mshr_miss_latency::total 101563511767                       # number of demand (read+write) MSHR miss cycles
system.cpu.dcache.overall_mshr_miss_latency::.switch_cpus.data   1068235500                       # number of overall MSHR miss cycles
system.cpu.dcache.overall_mshr_miss_latency::.switch_cpus_1.data 100495276267                       # number of overall MSHR miss cycles
system.cpu.dcache.overall_mshr_miss_latency::total 101563511767                       # number of overall MSHR miss cycles
system.cpu.dcache.demand_mshr_miss_rate::.switch_cpus.data     0.000715                       # mshr miss rate for demand accesses
system.cpu.dcache.demand_mshr_miss_rate::.switch_cpus_1.data     0.003778                       # mshr miss rate for demand accesses
system.cpu.dcache.demand_mshr_miss_rate::total     0.001697                       # mshr miss rate for demand accesses
system.cpu.dcache.overall_mshr_miss_rate::.switch_cpus.data     0.000715                       # mshr miss rate for overall accesses
system.cpu.dcache.overall_mshr_miss_rate::.switch_cpus_1.data     0.003778                       # mshr miss rate for overall accesses
system.cpu.dcache.overall_mshr_miss_rate::total     0.001697                       # mshr miss rate for overall accesses
system.cpu.dcache.demand_avg_mshr_miss_latency::.switch_cpus.data 37451.723171                       # average overall mshr miss latency
system.cpu.dcache.demand_avg_mshr_miss_latency::.switch_cpus_1.data 77377.388623                       # average overall mshr miss latency
system.cpu.dcache.demand_avg_mshr_miss_latency::total 76519.400619                       # average overall mshr miss latency
system.cpu.dcache.overall_avg_mshr_miss_latency::.switch_cpus.data 37451.723171                       # average overall mshr miss latency
system.cpu.dcache.overall_avg_mshr_miss_latency::.switch_cpus_1.data 77377.388623                       # average overall mshr miss latency
system.cpu.dcache.overall_avg_mshr_miss_latency::total 76519.400619                       # average overall mshr miss latency
system.cpu.dcache.replacements                1631814                       # number of replacements
system.cpu.dcache.ReadReq_hits::.cpu.data    222474075                       # number of ReadReq hits
system.cpu.dcache.ReadReq_hits::.switch_cpus.data     22231194                       # number of ReadReq hits
system.cpu.dcache.ReadReq_hits::.switch_cpus_1.data    226757014                       # number of ReadReq hits
system.cpu.dcache.ReadReq_hits::total       471462283                       # number of ReadReq hits
system.cpu.dcache.ReadReq_misses::.cpu.data       195077                       # number of ReadReq misses
system.cpu.dcache.ReadReq_misses::.switch_cpus.data        19101                       # number of ReadReq misses
system.cpu.dcache.ReadReq_misses::.switch_cpus_1.data      6412332                       # number of ReadReq misses
system.cpu.dcache.ReadReq_misses::total       6626510                       # number of ReadReq misses
system.cpu.dcache.ReadReq_miss_latency::.switch_cpus.data    169681000                       # number of ReadReq miss cycles
system.cpu.dcache.ReadReq_miss_latency::.switch_cpus_1.data 421731839000                       # number of ReadReq miss cycles
system.cpu.dcache.ReadReq_miss_latency::total 421901520000                       # number of ReadReq miss cycles
system.cpu.dcache.ReadReq_accesses::.cpu.data    222669152                       # number of ReadReq accesses(hits+misses)
system.cpu.dcache.ReadReq_accesses::.switch_cpus.data     22250295                       # number of ReadReq accesses(hits+misses)
system.cpu.dcache.ReadReq_accesses::.switch_cpus_1.data    233169346                       # number of ReadReq accesses(hits+misses)
system.cpu.dcache.ReadReq_accesses::total    478088793                       # number of ReadReq accesses(hits+misses)
system.cpu.dcache.ReadReq_miss_rate::.cpu.data     0.000876                       # miss rate for ReadReq accesses
system.cpu.dcache.ReadReq_miss_rate::.switch_cpus.data     0.000858                       # miss rate for ReadReq accesses
system.cpu.dcache.ReadReq_miss_rate::.switch_cpus_1.data     0.027501                       # miss rate for ReadReq accesses
system.cpu.dcache.ReadReq_miss_rate::total     0.013860                       # miss rate for ReadReq accesses
system.cpu.dcache.ReadReq_avg_miss_latency::.switch_cpus.data  8883.356892                       # average ReadReq miss latency
system.cpu.dcache.ReadReq_avg_miss_latency::.switch_cpus_1.data 65768.871450                       # average ReadReq miss latency
system.cpu.dcache.ReadReq_avg_miss_latency::total 63668.736635                       # average ReadReq miss latency
system.cpu.dcache.ReadReq_mshr_hits::.switch_cpus_1.data      5321798                       # number of ReadReq MSHR hits
system.cpu.dcache.ReadReq_mshr_hits::total      5321798                       # number of ReadReq MSHR hits
system.cpu.dcache.ReadReq_mshr_misses::.switch_cpus.data        19101                       # number of ReadReq MSHR misses
system.cpu.dcache.ReadReq_mshr_misses::.switch_cpus_1.data      1090534                       # number of ReadReq MSHR misses
system.cpu.dcache.ReadReq_mshr_misses::total      1109635                       # number of ReadReq MSHR misses
system.cpu.dcache.ReadReq_mshr_miss_latency::.switch_cpus.data    160130500                       # number of ReadReq MSHR miss cycles
system.cpu.dcache.ReadReq_mshr_miss_latency::.switch_cpus_1.data  85332274500                       # number of ReadReq MSHR miss cycles
system.cpu.dcache.ReadReq_mshr_miss_latency::total  85492405000                       # number of ReadReq MSHR miss cycles
system.cpu.dcache.ReadReq_mshr_miss_rate::.switch_cpus.data     0.000858                       # mshr miss rate for ReadReq accesses
system.cpu.dcache.ReadReq_mshr_miss_rate::.switch_cpus_1.data     0.004677                       # mshr miss rate for ReadReq accesses
system.cpu.dcache.ReadReq_mshr_miss_rate::total     0.002321                       # mshr miss rate for ReadReq accesses
system.cpu.dcache.ReadReq_avg_mshr_miss_latency::.switch_cpus.data  8383.356892                       # average ReadReq mshr miss latency
system.cpu.dcache.ReadReq_avg_mshr_miss_latency::.switch_cpus_1.data 78248.155949                       # average ReadReq mshr miss latency
system.cpu.dcache.ReadReq_avg_mshr_miss_latency::total 77045.519473                       # average ReadReq mshr miss latency
system.cpu.dcache.WriteReq_hits::.cpu.data    175680904                       # number of WriteReq hits
system.cpu.dcache.WriteReq_hits::.switch_cpus.data     17640362                       # number of WriteReq hits
system.cpu.dcache.WriteReq_hits::.switch_cpus_1.data    110352094                       # number of WriteReq hits
system.cpu.dcache.WriteReq_hits::total      303673360                       # number of WriteReq hits
system.cpu.dcache.WriteReq_misses::.cpu.data       118296                       # number of WriteReq misses
system.cpu.dcache.WriteReq_misses::.switch_cpus.data         9422                       # number of WriteReq misses
system.cpu.dcache.WriteReq_misses::.switch_cpus_1.data       211825                       # number of WriteReq misses
system.cpu.dcache.WriteReq_misses::total       339543                       # number of WriteReq misses
system.cpu.dcache.WriteReq_miss_latency::.switch_cpus.data    912816000                       # number of WriteReq miss cycles
system.cpu.dcache.WriteReq_miss_latency::.switch_cpus_1.data  15431632765                       # number of WriteReq miss cycles
system.cpu.dcache.WriteReq_miss_latency::total  16344448765                       # number of WriteReq miss cycles
system.cpu.dcache.WriteReq_accesses::.cpu.data    175799200                       # number of WriteReq accesses(hits+misses)
system.cpu.dcache.WriteReq_accesses::.switch_cpus.data     17649784                       # number of WriteReq accesses(hits+misses)
system.cpu.dcache.WriteReq_accesses::.switch_cpus_1.data    110563919                       # number of WriteReq accesses(hits+misses)
system.cpu.dcache.WriteReq_accesses::total    304012903                       # number of WriteReq accesses(hits+misses)
system.cpu.dcache.WriteReq_miss_rate::.cpu.data     0.000673                       # miss rate for WriteReq accesses
system.cpu.dcache.WriteReq_miss_rate::.switch_cpus.data     0.000534                       # miss rate for WriteReq accesses
system.cpu.dcache.WriteReq_miss_rate::.switch_cpus_1.data     0.001916                       # miss rate for WriteReq accesses
system.cpu.dcache.WriteReq_miss_rate::total     0.001117                       # miss rate for WriteReq accesses
system.cpu.dcache.WriteReq_avg_miss_latency::.switch_cpus.data 96881.341541                       # average WriteReq miss latency
system.cpu.dcache.WriteReq_avg_miss_latency::.switch_cpus_1.data 72850.856910                       # average WriteReq miss latency
system.cpu.dcache.WriteReq_avg_miss_latency::total 48136.609399                       # average WriteReq miss latency
system.cpu.dcache.WriteReq_mshr_hits::.switch_cpus_1.data         3591                       # number of WriteReq MSHR hits
system.cpu.dcache.WriteReq_mshr_hits::total         3591                       # number of WriteReq MSHR hits
system.cpu.dcache.WriteReq_mshr_misses::.switch_cpus.data         9422                       # number of WriteReq MSHR misses
system.cpu.dcache.WriteReq_mshr_misses::.switch_cpus_1.data       208234                       # number of WriteReq MSHR misses
system.cpu.dcache.WriteReq_mshr_misses::total       217656                       # number of WriteReq MSHR misses
system.cpu.dcache.WriteReq_mshr_miss_latency::.switch_cpus.data    908105000                       # number of WriteReq MSHR miss cycles
system.cpu.dcache.WriteReq_mshr_miss_latency::.switch_cpus_1.data  15163001767                       # number of WriteReq MSHR miss cycles
system.cpu.dcache.WriteReq_mshr_miss_latency::total  16071106767                       # number of WriteReq MSHR miss cycles
system.cpu.dcache.WriteReq_mshr_miss_rate::.switch_cpus.data     0.000534                       # mshr miss rate for WriteReq accesses
system.cpu.dcache.WriteReq_mshr_miss_rate::.switch_cpus_1.data     0.001883                       # mshr miss rate for WriteReq accesses
system.cpu.dcache.WriteReq_mshr_miss_rate::total     0.000716                       # mshr miss rate for WriteReq accesses
system.cpu.dcache.WriteReq_avg_mshr_miss_latency::.switch_cpus.data 96381.341541                       # average WriteReq mshr miss latency
system.cpu.dcache.WriteReq_avg_mshr_miss_latency::.switch_cpus_1.data 72817.127688                       # average WriteReq mshr miss latency
system.cpu.dcache.WriteReq_avg_mshr_miss_latency::total 73837.186969                       # average WriteReq mshr miss latency
system.cpu.dcache.power_state.pwrStateResidencyTicks::UNDEFINED 1587822525000                       # Cumulative time (in ticks) in various power states
system.cpu.dcache.tags.tagsinuse           511.995443                       # Cycle average of tags in use
system.cpu.dcache.tags.total_refs           776778378                       # Total number of references to valid blocks.
system.cpu.dcache.tags.sampled_refs           1632326                       # Sample count of references to valid blocks.
system.cpu.dcache.tags.avg_refs            475.872086                       # Average number of references to valid blocks.
system.cpu.dcache.tags.warmup_cycle              1500                       # Cycle when the warmup percentage was hit.
system.cpu.dcache.tags.occ_blocks::.cpu.data   384.747217                       # Average occupied blocks per requestor
system.cpu.dcache.tags.occ_blocks::.switch_cpus.data    24.253471                       # Average occupied blocks per requestor
system.cpu.dcache.tags.occ_blocks::.switch_cpus_1.data   102.994755                       # Average occupied blocks per requestor
system.cpu.dcache.tags.occ_percent::.cpu.data     0.751459                       # Average percentage of cache occupancy
system.cpu.dcache.tags.occ_percent::.switch_cpus.data     0.047370                       # Average percentage of cache occupancy
system.cpu.dcache.tags.occ_percent::.switch_cpus_1.data     0.201162                       # Average percentage of cache occupancy
system.cpu.dcache.tags.occ_percent::total     0.999991                       # Average percentage of cache occupancy
system.cpu.dcache.tags.occ_task_id_blocks::1024          512                       # Occupied blocks per task id
system.cpu.dcache.tags.age_task_id_blocks_1024::0            1                       # Occupied blocks per task id
system.cpu.dcache.tags.age_task_id_blocks_1024::1           13                       # Occupied blocks per task id
system.cpu.dcache.tags.age_task_id_blocks_1024::2          129                       # Occupied blocks per task id
system.cpu.dcache.tags.age_task_id_blocks_1024::3          218                       # Occupied blocks per task id
system.cpu.dcache.tags.age_task_id_blocks_1024::4          151                       # Occupied blocks per task id
system.cpu.dcache.tags.occ_task_id_percent::1024            1                       # Percentage of cache occupancy per task id
system.cpu.dcache.tags.tag_accesses        3130039110                       # Number of tag accesses
system.cpu.dcache.tags.data_accesses       3130039110                       # Number of data accesses
system.cpu.dcache.tags.power_state.pwrStateResidencyTicks::UNDEFINED 1587822525000                       # Cumulative time (in ticks) in various power states
system.cpu.power_state.numTransitions               2                       # Number of power state transitions
system.cpu.power_state.pwrStateResidencyTicks::ON 1169538795500                       # Cumulative time (in ticks) in various power states
system.cpu.power_state.pwrStateResidencyTicks::OFF 418283729500                       # Cumulative time (in ticks) in various power states

---------- End Simulation Statistics   ----------
